Auto-Transcript Start Time:  08:28:22, 17 Oct 2025 ora legale Europa occidentale 
Current Directory: "C:\Users\Cosimo\Desktop\project_fluent_2"

              Welcome to ANSYS Fluent 2024 R1

              Copyright 1987-2024 ANSYS, Inc. All Rights Reserved.
              Unauthorized use, distribution or duplication is prohibited.
              This product is subject to U.S. laws governing export and re-export.
              For full Legal Notice, see documentation.

Build Time: Nov 22 2023 10:34:35 EST  Build Id: 10184  
 
Connected License Server List:	1055@localhost
Host spawning Node 0 on machine "DESKTOP-13BM670" (win64).

----------------------------------------------------------------------------------
ID    Hostname         Core  O.S.         PID    Vendor                           
----------------------------------------------------------------------------------
n7    DESKTOP-13BM670  8/8  Windows-x64  19048  Intel(R) Core(TM) i7-10510U      
n6    DESKTOP-13BM670  7/8  Windows-x64  15236  Intel(R) Core(TM) i7-10510U      
n5    DESKTOP-13BM670  6/8  Windows-x64  22068  Intel(R) Core(TM) i7-10510U      
n4    DESKTOP-13BM670  5/8  Windows-x64  22272  Intel(R) Core(TM) i7-10510U      
n3    DESKTOP-13BM670  4/8  Windows-x64  12756  Intel(R) Core(TM) i7-10510U      
n2    DESKTOP-13BM670  3/8  Windows-x64  12540  Intel(R) Core(TM) i7-10510U      
n1    DESKTOP-13BM670  2/8  Windows-x64  3924   Intel(R) Core(TM) i7-10510U      
n0*   DESKTOP-13BM670  1/8  Windows-x64  9012   Intel(R) Core(TM) i7-10510U      
host  DESKTOP-13BM670       Windows-x64  13728  Intel(R) Core(TM) i7-10510U      

MPI Option Selected: intel
Selected system interconnect: default
----------------------------------------------------------------------------------

Cleanup script file is C:\\Users\\Cosimo\\Desktop\\project_fluent_2\\cleanup-fluent-DESKTOP-13BM670-13728.bat
(cx-use-window-id 51)

> (cx-gui-do cx-activate-item "MenuBar*ReadSubMenu*Case...")
(cx-gui-do cx-set-file-dialog-entries "Select File" '( "Ugello_Mesh.cas.h5") "CFF Case Files (*.cas.h5 *.msh.h5 *.MSH.h5 )")
Fast-loading "C:\PROGRA~1\ANSYSI~1\v241\fluent\fluent24.1.0\\addons\afd\lib\hdfio.bin"
Done.

Reading from DESKTOP-13BM670:"C:/Users/Cosimo/Desktop/project_fluent_2/Ugello_Mesh.cas.h5" in NODE0 mode ...
  Reading mesh ...
        6058 cells,     1 cell zone  ...
           6058 mixed cells,  zone id: 2
       12394 faces,     5 face zones ...
          11816 2D interior faces,  zone id: 1
             34 2D pressure-inlet faces,  zone id: 5
             22 2D pressure-outlet faces,  zone id: 6
            260 2D axis faces,  zone id: 7
            262 2D wall faces,  zone id: 8
        6337 nodes,     1 node zone  ...
  Done.


Building...
     mesh
	distributing mesh
		parts........,
		faces........,
		nodes........,
		cells........,
        bandwidth reduction using Reverse Cuthill-McKee: 770/28 = 27.5
     materials,
     interface,
     domains,
	mixture
     zones,
	wall
	axis
	outlet
	interior-ugello_delaval_noambientevalle-freeparts_none
	inlet
	ugello_delaval_noambientevalle-freeparts_none
     parallel,
Done.
(cx-use-window-id 51)
(cx-gui-do cx-activate-item "ToolBar*Mesh Display*fl_mesh_svg_graphics_toolbar")
(cx-gui-do cx-set-toggle-button2 "Mesh Display*Table1*Frame1*Frame1*ToggleBox1(Options)*CheckButton3(Faces)" #t)
(cx-gui-do cx-activate-item "Mesh Display*Table1*Frame1*Frame1*ToggleBox1(Options)*CheckButton3(Faces)")
(cx-gui-do cx-activate-item "Mesh Display*PanelButtons*PushButton1(OK)")
(cx-gui-do cx-activate-item "Mesh Display*PanelButtons*PushButton1(OK)")
(cx-gui-do cx-activate-item "Mesh Display*PanelButtons*PushButton1(OK)")
(cx-gui-do cx-activate-item "Mesh Display*PanelButtons*PushButton1(OK)")
(cx-gui-do cx-activate-item "Mesh Display*PanelButtons*PushButton1(OK)")
(cx-gui-do cx-activate-item "Mesh Display*PanelButtons*PushButton1(OK)")
(cx-gui-do cx-activate-item "Mesh Display*PanelButtons*PushButton1(OK)")
(cx-gui-do cx-activate-item "Mesh Display*PanelButtons*PushButton2(Cancel)")
(cx-gui-do cx-activate-item "ToolBar*View*autoscale")
(cx-gui-do cx-set-list-tree-selections "NavigationPane*Frame2*Table1*List_Tree2" (list "Setup|Boundary Conditions|Outlet|outlet (pressure-outlet, id=6)"))
(cx-gui-do cx-set-list-tree-selections "NavigationPane*Frame2*Table1*List_Tree2" (list "Setup|Boundary Conditions|Outlet|outlet (pressure-outlet, id=6)"))
(cx-gui-do cx-activate-item "NavigationPane*Frame2*Table1*List_Tree2")
(cx-gui-do cx-set-list-tree-selections "NavigationPane*Frame2*Table1*List_Tree2" (list "Setup|Boundary Conditions|Outlet|outlet (pressure-outlet, id=6)"))
(cx-gui-do cx-activate-tab-index "Pressure Outlet*Frame2*Frame2" 0)
(cx-gui-do cx-activate-tab-index "Pressure Outlet*Frame2*Frame2" 1)
(cx-gui-do cx-activate-tab-index "Pressure Outlet*Frame2*Frame2" 0)
(cx-gui-do cx-activate-tab-index "Pressure Outlet*Frame2*Frame2" 2)
(cx-gui-do cx-activate-tab-index "Pressure Outlet*Frame2*Frame2" 0)
(cx-gui-do cx-activate-tab-index "Pressure Outlet*Frame2*Frame2" 3)
(cx-gui-do cx-activate-tab-index "Pressure Outlet*Frame2*Frame2" 0)
(cx-gui-do cx-activate-tab-index "Pressure Outlet*Frame2*Frame2" 4)
(cx-gui-do cx-activate-tab-index "Pressure Outlet*Frame2*Frame2" 0)
(cx-gui-do cx-activate-tab-index "Pressure Outlet*Frame2*Frame2" 5)
(cx-gui-do cx-activate-tab-index "Pressure Outlet*Frame2*Frame2" 0)
(cx-gui-do cx-activate-tab-index "Pressure Outlet*Frame2*Frame2" 6)
(cx-gui-do cx-activate-tab-index "Pressure Outlet*Frame2*Frame2" 0)
(cx-gui-do cx-activate-tab-index "Pressure Outlet*Frame2*Frame2" 7)
(cx-gui-do cx-activate-tab-index "Pressure Outlet*Frame2*Frame2" 0)
(cx-gui-do cx-activate-tab-index "Pressure Outlet*Frame2*Frame2" 8)
(cx-gui-do cx-activate-tab-index "Pressure Outlet*Frame2*Frame2" 0)
(cx-gui-do cx-enable-apply-button "Pressure Outlet")
(cx-gui-do cx-set-expression-entry "Pressure Outlet*Frame2*Frame2*Frame1(Momentum)*Table1*Table7*ExpressionEntry1(Gauge Pressure)" '("90179.25" . 0))
(cx-gui-do create-new-param "Pressure Outlet*Frame2*Frame2*Frame1(Momentum)*Table1*Table7*ExpressionEntry1(Gauge Pressure)" 90179.25 "pressure")
(cx-gui-do cx-activate-tab-index "Expression*Table1*Frame1" 0)
(cx-gui-do cx-activate-tab-index "Expression*Table1*Frame1" 1)
(cx-gui-do cx-activate-tab-index "Expression*Table1*Frame1" 0)
(cx-gui-do cx-activate-item "Parameter Expression*PanelButtons*PushButton2(Cancel)")
(cx-gui-do cx-set-expression-entry "Pressure Outlet*Frame2*Frame2*Frame1(Momentum)*Table1*Table7*ExpressionEntry1(Gauge Pressure)" '("90179.25" . 0))
(cx-gui-do cx-set-expression-entry "Pressure Outlet*Frame2*Frame2*Frame1(Momentum)*Table1*Table7*ExpressionEntry1(Gauge Pressure)" '("p_out_atm" . 1))
(cx-gui-do cx-activate-item "Pressure Outlet*PanelButtons*PushButton1(OK)")
(cx-gui-do cx-activate-item "Pressure Outlet*PanelButtons*PushButton2(Cancel)")
(cx-gui-do cx-set-list-tree-selections "NavigationPane*Frame2*Table1*List_Tree2" (list "Setup|Named Expressions|p_out_atm"))
(cx-gui-do cx-set-list-tree-selections "NavigationPane*Frame2*Table1*List_Tree2" (list "Solution|Monitors|Report Files"))
(cx-gui-do cx-set-list-tree-selections "NavigationPane*Frame2*Table1*List_Tree2" (list "Solution|Report Definitions|mout-plot"))
(cx-gui-do cx-set-list-tree-selections "NavigationPane*Frame2*Table1*List_Tree2" (list "Solution|Report Definitions|mout-plot"))
(cx-gui-do cx-set-list-tree-selections "NavigationPane*Frame2*Table1*List_Tree2" (list "Solution|Report Definitions|delta-massflux"))
(cx-gui-do cx-set-list-tree-selections "NavigationPane*Frame2*Table1*List_Tree2" (list "Solution|Report Definitions|min-plot"))
(cx-gui-do cx-set-list-tree-selections "NavigationPane*Frame2*Table1*List_Tree2" (list "Solution|Report Definitions|min-plot"))
(cx-gui-do cx-list-tree-right-click "NavigationPane*Frame2*Table1*List_Tree2" )
(cx-gui-do cx-activate-item "MenuBar*PopupMenuTree-min-plot*Edit...")
(cx-gui-do cx-set-toggle-button2 "Surface Report Definition*Table1*Table1*CheckButton5(Create Output Parameter)" #t)
(cx-gui-do cx-activate-item "Surface Report Definition*Table1*Table1*CheckButton5(Create Output Parameter)")
(cx-gui-do cx-activate-item "Surface Report Definition*PanelButtons*PushButton1(OK)")
(cx-gui-do cx-set-list-tree-selections "NavigationPane*Frame2*Table1*List_Tree2" (list "Solution|Report Definitions|minmout-plot"))
(cx-gui-do cx-set-list-tree-selections "NavigationPane*Frame2*Table1*List_Tree2" (list "Solution|Report Definitions|minmout-plot"))
(cx-gui-do cx-list-tree-right-click "NavigationPane*Frame2*Table1*List_Tree2" )
(cx-gui-do cx-activate-item "MenuBar*PopupMenuTree-minmout-plot*Edit...")
(cx-gui-do cx-set-toggle-button2 "Expression Report Definition*Table1*Table3*CheckButton6(Create Output Parameter)" #t)
(cx-gui-do cx-activate-item "Expression Report Definition*Table1*Table3*CheckButton6(Create Output Parameter)")
(cx-gui-do cx-activate-item "Expression Report Definition*PanelButtons*PushButton1(OK)")
(cx-gui-do cx-set-list-tree-selections "NavigationPane*Frame2*Table1*List_Tree2" (list "Setup|Named Expressions"))
(cx-gui-do cx-set-list-tree-selections "NavigationPane*Frame2*Table1*List_Tree2" (list "Setup|Named Expressions"))
(cx-gui-do cx-list-tree-right-click "NavigationPane*Frame2*Table1*List_Tree2" )
(cx-gui-do cx-activate-item "MenuBar*PopupMenuTree-Named Expressions*Manage...")
(cx-gui-do cx-activate-item "Expression Manager*PanelButtons*PushButton1(Close)")
(cx-gui-do cx-activate-item "MenuBar*WriteSubMenu*Case...")
(cx-gui-do cx-set-file-dialog-entries "Select File" '( "Ugello_Mesh.cas.h5") "CFF Case Files (*.cas.h5 )")
(cx-gui-do cx-activate-item "Question*OK")

Writing to DESKTOP-13BM670:"C:/Users/Cosimo/Desktop/project_fluent_2/Ugello_Mesh.cas.h5" in NODE0 mode and compression level 1 ...
Grouping cells for Laplace smoothing ...
        6058 cells,     1 zone  ...
       12394 faces,     5 zones ...
        6337 nodes,     1 zone  ...
  Done.
Done.
(cx-gui-do cx-activate-item "Ribbon*Frame1*Frame10(Parametric)*Table1*Table3(Study)*PushButton1(Initialize)")
(cx-gui-do cx-activate-item "Question*OK")
(cx-gui-do cx-set-file-dialog-entries "Select File" '( "Ugello_Mesh_2.flprj") "Project files (*.flprj )")

Writing to DESKTOP-13BM670:"C:/Users/Cosimo/Desktop/project_fluent_2/Ugello_Mesh_2.cffdb\Ugello_Mesh-Solve\Ugello_Mesh.cas.h5" in NODE0 mode and compression level 1 ...
Grouping cells for Laplace smoothing ...
        6058 cells,     1 zone  ...
       12394 faces,     5 zones ...
        6337 nodes,     1 zone  ...
  Done.
Done.

Registering a case "C:/Users/Cosimo/Desktop/project_fluent_2/Ugello_Mesh_2.cffdb\Ugello_Mesh-Solve\Ugello_Mesh.cas.h5" with simulation "Ugello_Mesh-Solve"...
(cx-gui-do cx-activate-tab-index "Parametric Study*Table1*Frame1*Table2*Frame1" 0)
(cx-gui-do cx-activate-tab-index "Parametric Study*Table1*Frame1*Table2*Frame1" 1)
(cx-gui-do cx-activate-tab-index "Parametric Study*Table1*Frame1*Table2*Frame1" 0)
(cx-gui-do cx-activate-tab-index "Parametric Study*Table1*Frame1*Table2*Frame1" 2)
(cx-gui-do cx-activate-tab-index "Parametric Study*Table1*Frame1*Table2*Frame1" 0)
(cx-gui-do cx-activate-tab-index "Parametric Study*Table1*Frame1*Table2*Frame1" 3)
(cx-gui-do cx-activate-tab-index "Parametric Study*Table1*Frame1*Table2*Frame1" 0)
(cx-gui-do cx-activate-tab-index "Parametric Study*Table1*Frame1*Table2*Frame1" 0)
(cx-gui-do cx-activate-tab-index "Parametric Study*Table1*Frame1*Table2*Frame1" 0)
(cx-gui-do cx-activate-tab-index "Parametric Study*Table1*Frame1*Table2*Frame1" 0)
(cx-gui-do cx-activate-item "Ribbon*Frame1*Frame10(Parametric)*Table1*Table3(Update Options)*PushButton3(Update Current)")

Writing to DESKTOP-13BM670:"C:/Users/Cosimo/Desktop/project_fluent_2/Ugello_Mesh_2.cffdb\Ugello_Mesh-Solve\BaseCases\Ugello_Mesh.cas.h5" in NODE0 mode and compression level 1 ...
Grouping cells for Laplace smoothing ...
        6058 cells,     1 zone  ...
       12394 faces,     5 zones ...
        6337 nodes,     1 zone  ...
  Done.
Done.

Opening input/output transcript to file "C:/Users/Cosimo/Desktop/project_fluent_2/Ugello_Mesh_2.cffdb/Ugello_Mesh-Solve/Base DP\Auto-generated-transcript.trn".

----------------------------------------------------------------------------------
ID    Hostname         Core  O.S.         PID    Vendor                           
----------------------------------------------------------------------------------
n7    DESKTOP-13BM670  8/8  Windows-x64  19048  Intel(R) Core(TM) i7-10510U      
n6    DESKTOP-13BM670  7/8  Windows-x64  15236  Intel(R) Core(TM) i7-10510U      
n5    DESKTOP-13BM670  6/8  Windows-x64  22068  Intel(R) Core(TM) i7-10510U      
n4    DESKTOP-13BM670  5/8  Windows-x64  22272  Intel(R) Core(TM) i7-10510U      
n3    DESKTOP-13BM670  4/8  Windows-x64  12756  Intel(R) Core(TM) i7-10510U      
n2    DESKTOP-13BM670  3/8  Windows-x64  12540  Intel(R) Core(TM) i7-10510U      
n1    DESKTOP-13BM670  2/8  Windows-x64  3924   Intel(R) Core(TM) i7-10510U      
n0*   DESKTOP-13BM670  1/8  Windows-x64  9012   Intel(R) Core(TM) i7-10510U      
host  DESKTOP-13BM670       Windows-x64  13728  Intel(R) Core(TM) i7-10510U      

MPI Option Selected: intel
Selected system interconnect: default
----------------------------------------------------------------------------------

Applying input parameter values ...

Initialize using the hybrid initialization method.

Checking case topology... 
-This case has both inlets & outlets 
-Pressure information is available at the boundaries

	iter		scalar-0		scalar-1

	1		1.000000e+00	1.000000e+00
	2		1.325811e-05	1.037481e-06
	3		1.425076e-06	7.801761e-08
	4		1.874839e-07	8.361774e-09
	5		2.334117e-08	7.792774e-10
	6		3.011711e-09	8.198601e-11
	7		3.315742e-10	8.844904e-12
	8		5.916563e-11	1.327366e-12
	9		9.234088e-12	1.528224e-13
	10		1.384442e-12	2.315643e-14

Hybrid initialization is done.


  iter  continuity  x-velocity  y-velocity      energy  minus-mout   mout-plot    min-plot     time/iter
     1  1.0000e+00  1.0000e+00  1.0000e+00  1.0000e+00  4.0051e+00 -4.0051e+00  3.2573e+00  0:00:00 1999
     2  1.0000e+00  8.8948e-01  8.1604e-01  1.0000e+00  4.0912e+00 -4.0912e+00  2.9510e+00  0:33:18 1998
     3  9.9508e-01  8.3888e-01  6.7499e-01  9.8573e-01  4.1735e+00 -4.1735e+00  2.8525e+00  0:26:38 1997
     4  9.4889e-01  8.1386e-01  5.6978e-01  9.3480e-01  4.2517e+00 -4.2517e+00  2.8445e+00  0:21:17 1996
     5  9.0281e-01  8.0265e-01  4.9561e-01  8.8494e-01  4.3239e+00 -4.3239e+00  2.8599e+00  0:17:01 1995
     6  8.6639e-01  8.0024e-01  4.4715e-01  8.4497e-01  4.3878e+00 -4.3878e+00  2.8724e+00  0:13:37 1994
     7  8.3515e-01  8.0390e-01  4.2040e-01  8.1074e-01  4.4416e+00 -4.4416e+00  2.8770e+00  0:10:53 1993
     8  8.0736e-01  8.1188e-01  4.0901e-01  7.8065e-01  4.4838e+00 -4.4838e+00  2.8741e+00  0:08:42 1992
     9  7.8238e-01  8.2295e-01  4.0277e-01  7.5415e-01  4.5123e+00 -4.5123e+00  2.8681e+00  0:13:36 1991
    10  7.5943e-01  8.3585e-01  3.9215e-01  7.3053e-01  4.5268e+00 -4.5268e+00  2.8625e+00  0:10:52 1990
    11  7.3758e-01  8.4921e-01  3.7184e-01  7.0878e-01  4.5268e+00 -4.5268e+00  2.8588e+00  0:08:42 1989

  iter  continuity  x-velocity  y-velocity      energy  minus-mout   mout-plot    min-plot     time/iter
    12  7.1532e-01  8.6174e-01  3.4186e-01  6.8725e-01  4.5122e+00 -4.5122e+00  2.8565e+00  0:06:57 1988
    13  6.9139e-01  8.7205e-01  3.0556e-01  6.6446e-01  4.4830e+00 -4.4830e+00  2.8548e+00  0:05:33 1987
    14  6.6503e-01  8.7884e-01  2.6839e-01  6.3941e-01  4.4404e+00 -4.4404e+00  2.8533e+00  0:04:27 1986
    15  6.3645e-01  8.8121e-01  2.3670e-01  6.1211e-01  4.3867e+00 -4.3867e+00  2.8517e+00  0:10:10 1985
    16  6.0711e-01  8.7877e-01  2.1412e-01  5.8390e-01  4.3243e+00 -4.3243e+00  2.8498e+00  0:08:08 1984
    17  5.7960e-01  8.7148e-01  2.0023e-01  5.5729e-01  4.2558e+00 -4.2558e+00  2.8476e+00  0:06:30 1983
    18  5.5731e-01  8.5941e-01  1.9124e-01  5.3563e-01  4.1837e+00 -4.1837e+00  2.8452e+00  0:05:12 1982
    19  5.4373e-01  8.4293e-01  1.8304e-01  5.2241e-01  4.1105e+00 -4.1105e+00  2.8426e+00  0:04:09 1981
    20  5.4151e-01  8.2266e-01  1.7318e-01  5.2030e-01  4.0387e+00 -4.0387e+00  2.8398e+00  0:03:19 1980
    21  5.5149e-01  7.9926e-01  1.6167e-01  5.3021e-01  3.9705e+00 -3.9705e+00  2.8368e+00  0:02:39 1979
    22  5.7247e-01  7.7342e-01  1.4997e-01  5.5091e-01  3.9079e+00 -3.9079e+00  2.8336e+00  0:02:08 1978

  iter  continuity  x-velocity  y-velocity      energy  minus-mout   mout-plot    min-plot     time/iter
    23  6.0201e-01  7.4618e-01  1.4071e-01  5.8010e-01  3.8524e+00 -3.8524e+00  2.8301e+00  0:01:42 1977
    24  6.3695e-01  7.1811e-01  1.3573e-01  6.1459e-01  3.8055e+00 -3.8055e+00  2.8264e+00  0:07:57 1976
    25  6.7431e-01  6.8980e-01  1.3521e-01  6.5142e-01  3.7678e+00 -3.7678e+00  2.8225e+00  0:06:21 1975
    26  7.1158e-01  6.6179e-01  1.3698e-01  6.8809e-01  3.7399e+00 -3.7399e+00  2.8183e+00  0:05:05 1974
    27  7.4690e-01  6.3450e-01  1.3897e-01  7.2276e-01  3.7220e+00 -3.7220e+00  2.8139e+00  0:04:04 1973
    28  7.7891e-01  6.0836e-01  1.3952e-01  7.5408e-01  3.7136e+00 -3.7136e+00  2.8092e+00  0:03:15 1972
    29  8.0684e-01  5.8395e-01  1.3717e-01  7.8128e-01  3.7142e+00 -3.7142e+00  2.8043e+00  0:09:10 1971
    30  8.3020e-01  5.6168e-01  1.3153e-01  8.0388e-01  3.7230e+00 -3.7230e+00  2.7992e+00  0:07:20 1970
    31  8.4874e-01  5.4195e-01  1.2400e-01  8.2160e-01  3.7388e+00 -3.7388e+00  2.7938e+00  0:05:52 1969
    32  8.6256e-01  5.2504e-01  1.1519e-01  8.3454e-01  3.7603e+00 -3.7603e+00  2.7882e+00  0:11:15 1968
    33  8.7196e-01  5.1125e-01  1.0598e-01  8.4299e-01  3.7860e+00 -3.7860e+00  2.7823e+00  0:09:00 1967

  iter  continuity  x-velocity  y-velocity      energy  minus-mout   mout-plot    min-plot     time/iter
    34  8.7740e-01  5.0062e-01  9.8948e-02  8.4739e-01  3.8144e+00 -3.8144e+00  2.7762e+00  0:07:11 1966
    35  8.7932e-01  4.9311e-01  9.5814e-02  8.4821e-01  3.8441e+00 -3.8441e+00  2.7698e+00  0:05:45 1965
    36  8.7824e-01  4.8845e-01  9.7544e-02  8.4599e-01  3.8735e+00 -3.8735e+00  2.7631e+00  0:04:36 1964
    37  8.7486e-01  4.8640e-01  1.0310e-01  8.4144e-01  3.9012e+00 -3.9012e+00  2.7562e+00  0:03:41 1963
    38  8.6972e-01  4.8662e-01  1.1120e-01  8.3512e-01  3.9259e+00 -3.9259e+00  2.7491e+00  0:02:56 1962
    39  8.6331e-01  4.8864e-01  1.2055e-01  8.2756e-01  3.9466e+00 -3.9466e+00  2.7417e+00  0:02:21 1961
    40  8.5601e-01  4.9201e-01  1.3000e-01  8.1914e-01  3.9621e+00 -3.9621e+00  2.7340e+00  0:08:25 1960
    41  8.4812e-01  4.9629e-01  1.3881e-01  8.1015e-01  3.9717e+00 -3.9717e+00  2.7261e+00  0:06:44 1959
    42  8.3985e-01  5.0108e-01  1.4664e-01  8.0081e-01  3.9749e+00 -3.9749e+00  2.7179e+00  0:05:23 1958
    43  8.3128e-01  5.0595e-01  1.5342e-01  7.9120e-01  3.9712e+00 -3.9712e+00  2.7094e+00  0:04:18 1957
    44  8.2239e-01  5.1058e-01  1.5900e-01  7.8126e-01  3.9604e+00 -3.9604e+00  2.7007e+00  0:03:26 1956

  iter  continuity  x-velocity  y-velocity      energy  minus-mout   mout-plot    min-plot     time/iter
    45  8.1312e-01  5.1468e-01  1.6344e-01  7.7088e-01  3.9424e+00 -3.9424e+00  2.6917e+00  0:02:45 1955
    46  8.0341e-01  5.1800e-01  1.6689e-01  7.5998e-01  3.9173e+00 -3.9173e+00  2.6825e+00  0:02:12 1954
    47  7.9318e-01  5.2040e-01  1.6954e-01  7.4842e-01  3.8852e+00 -3.8852e+00  2.6730e+00  0:08:16 1953
    48  7.8237e-01  5.2168e-01  1.7149e-01  7.3611e-01  3.8466e+00 -3.8466e+00  2.6632e+00  0:06:37 1952
    49  7.7110e-01  5.2169e-01  1.7293e-01  7.2313e-01  3.8017e+00 -3.8017e+00  2.6531e+00  0:05:17 1951
    50  7.5940e-01  5.2032e-01  1.7396e-01  7.0950e-01  3.7511e+00 -3.7511e+00  2.6428e+00  0:04:14 1950
    51  7.4747e-01  5.1748e-01  1.7452e-01  6.9539e-01  3.6952e+00 -3.6952e+00  2.6322e+00  0:03:23 1949
    52  7.3575e-01  5.1330e-01  1.7475e-01  6.8124e-01  3.6347e+00 -3.6347e+00  2.6213e+00  0:02:42 1948
    53  7.2468e-01  5.0783e-01  1.7461e-01  6.6755e-01  3.5702e+00 -3.5702e+00  2.6102e+00  0:08:39 1947
    54  7.1479e-01  5.0108e-01  1.7415e-01  6.5479e-01  3.5022e+00 -3.5022e+00  2.5988e+00  0:06:55 1946
    55  7.0661e-01  4.9312e-01  1.7322e-01  6.4360e-01  3.4315e+00 -3.4315e+00  2.5870e+00  0:05:32 1945

  iter  continuity  x-velocity  y-velocity      energy  minus-mout   mout-plot    min-plot     time/iter
    56  7.0073e-01  4.8405e-01  1.7186e-01  6.3463e-01  3.3585e+00 -3.3585e+00  2.5751e+00  0:04:25 1944
    57  6.9765e-01  4.7398e-01  1.7001e-01  6.2850e-01  3.2840e+00 -3.2840e+00  2.5628e+00  0:03:32 1943
    58  6.9777e-01  4.6303e-01  1.6762e-01  6.2562e-01  3.2085e+00 -3.2085e+00  2.5502e+00  0:02:50 1942
    59  7.0131e-01  4.5140e-01  1.6474e-01  6.2634e-01  3.1325e+00 -3.1325e+00  2.5373e+00  0:02:16 1941
    60  7.0842e-01  4.3916e-01  1.6133e-01  6.3083e-01  3.0566e+00 -3.0566e+00  2.5242e+00  0:01:48 1940
    61  7.1892e-01  4.2647e-01  1.5751e-01  6.3895e-01  2.9812e+00 -2.9812e+00  2.5107e+00  0:07:55 1939
    62  7.3252e-01  4.1354e-01  1.5323e-01  6.5041e-01  2.9069e+00 -2.9069e+00  2.4969e+00  0:06:19 1938
    63  7.4883e-01  4.0045e-01  1.4856e-01  6.6479e-01  2.8340e+00 -2.8340e+00  2.4828e+00  0:05:03 1937
    64  7.6723e-01  3.8739e-01  1.4366e-01  6.8142e-01  2.7629e+00 -2.7629e+00  2.4684e+00  0:04:03 1936
    65  7.8708e-01  3.7439e-01  1.3854e-01  6.9963e-01  2.6940e+00 -2.6940e+00  2.4537e+00  0:03:14 1935
    66  8.0780e-01  3.6155e-01  1.3316e-01  7.1879e-01  2.6276e+00 -2.6276e+00  2.4387e+00  0:02:35 1934

  iter  continuity  x-velocity  y-velocity      energy  minus-mout   mout-plot    min-plot     time/iter
    67  8.2873e-01  3.4898e-01  1.2753e-01  7.3823e-01  2.5641e+00 -2.5641e+00  2.4234e+00  0:08:31 1933
    68  8.4932e-01  3.3675e-01  1.2165e-01  7.5738e-01  2.5035e+00 -2.5035e+00  2.4077e+00  0:06:48 1932
    69  8.6909e-01  3.2491e-01  1.1538e-01  7.7575e-01  2.4463e+00 -2.4463e+00  2.3917e+00  0:05:26 1931
    70  8.8760e-01  3.1346e-01  1.0888e-01  7.9290e-01  2.3926e+00 -2.3926e+00  2.3753e+00  0:04:21 1930
    71  9.0460e-01  3.0240e-01  1.0223e-01  8.0857e-01  2.3426e+00 -2.3426e+00  2.3587e+00  0:03:29 1929
    72  9.1994e-01  2.9180e-01  9.5455e-02  8.2259e-01  2.2965e+00 -2.2965e+00  2.3417e+00  0:02:47 1928
    73  9.3348e-01  2.8188e-01  8.8973e-02  8.3483e-01  2.2544e+00 -2.2544e+00  2.3243e+00  0:08:39 1927
    74  9.4534e-01  2.7246e-01  8.2871e-02  8.4538e-01  2.2163e+00 -2.2163e+00  2.3066e+00  0:06:55 1926
    75  9.5559e-01  2.6369e-01  7.7118e-02  8.5430e-01  2.1823e+00 -2.1823e+00  2.2886e+00  0:05:32 1925
    76  9.6440e-01  2.5565e-01  7.1979e-02  8.6171e-01  2.1525e+00 -2.1525e+00  2.2702e+00  0:04:25 1924
    77  9.7185e-01  2.4808e-01  6.7185e-02  8.6775e-01  2.1268e+00 -2.1268e+00  2.2514e+00  0:09:57 1923

  iter  continuity  x-velocity  y-velocity      energy  minus-mout   mout-plot    min-plot     time/iter
    78  9.7810e-01  2.4156e-01  6.3036e-02  8.7254e-01  2.1052e+00 -2.1052e+00  2.2323e+00  0:07:57 1922
    79  9.8329e-01  2.3586e-01  5.9345e-02  8.7621e-01  2.0875e+00 -2.0875e+00  2.2128e+00  0:06:21 1921
    80  9.8755e-01  2.3121e-01  5.6026e-02  8.7892e-01  2.0737e+00 -2.0737e+00  2.1930e+00  0:05:05 1920
    81  9.9033e-01  2.2729e-01  5.2283e-02  8.8020e-01  2.0636e+00 -2.0636e+00  2.1727e+00  0:04:04 1919
    82  9.9207e-01  2.2585e-01  4.9085e-02  8.8038e-01  2.0571e+00 -2.0571e+00  2.1522e+00  0:03:15 1918
    83  9.9333e-01  2.2641e-01  4.6514e-02  8.7999e-01  2.0539e+00 -2.0539e+00  2.1312e+00  0:08:59 1917
    84  9.9408e-01  2.2716e-01  4.4799e-02  8.7903e-01  2.0539e+00 -2.0539e+00  2.1099e+00  0:07:11 1916
    85  9.9452e-01  2.2921e-01  4.3073e-02  8.7774e-01  2.0568e+00 -2.0568e+00  2.0882e+00  0:05:45 1915
    86  9.9473e-01  2.3178e-01  4.2372e-02  8.7609e-01  2.0624e+00 -2.0624e+00  2.0661e+00  0:04:36 1914
    87  9.9454e-01  2.3508e-01  4.2380e-02  8.7396e-01  2.0704e+00 -2.0704e+00  2.0436e+00  0:03:40 1913
    88  9.9399e-01  2.3939e-01  4.2771e-02  8.7146e-01  2.0806e+00 -2.0806e+00  2.0208e+00  0:02:56 1912

  iter  continuity  x-velocity  y-velocity      energy  minus-mout   mout-plot    min-plot     time/iter
    89  9.9343e-01  2.4342e-01  4.4259e-02  8.6874e-01  2.0928e+00 -2.0928e+00  1.9976e+00  0:02:21 1911
    90  9.9285e-01  2.4841e-01  4.5662e-02  8.6593e-01  2.1067e+00 -2.1067e+00  1.9740e+00  0:08:15 1910
    91  9.9220e-01  2.5403e-01  4.7544e-02  8.6300e-01  2.1221e+00 -2.1221e+00  1.9501e+00  0:06:36 1909
    92  9.9195e-01  2.5922e-01  4.9411e-02  8.6020e-01  2.1389e+00 -2.1389e+00  1.9258e+00  0:05:16 1908
    93  9.9218e-01  2.6470e-01  5.1207e-02  8.5784e-01  2.1568e+00 -2.1568e+00  1.9011e+00  0:04:13 1907
    94  9.9268e-01  2.7080e-01  5.3062e-02  8.5564e-01  2.1756e+00 -2.1756e+00  1.8760e+00  0:03:22 1906
    95  9.9379e-01  2.7627e-01  5.4885e-02  8.5380e-01  2.1952e+00 -2.1952e+00  1.8506e+00  0:02:42 1905
    96  9.9596e-01  2.8200e-01  5.6506e-02  8.5295e-01  2.2153e+00 -2.2153e+00  1.8248e+00  0:02:09 1904
    97  9.9875e-01  2.8735e-01  5.7647e-02  8.5260e-01  2.2358e+00 -2.2358e+00  1.7986e+00  0:08:04 1903
    98  1.0024e+00  2.9261e-01  5.8975e-02  8.5286e-01  2.2565e+00 -2.2565e+00  1.7721e+00  0:06:27 1902
    99  1.0074e+00  2.9823e-01  6.0209e-02  8.5448e-01  2.2773e+00 -2.2773e+00  1.7452e+00  0:05:09 1901

  iter  continuity  x-velocity  y-velocity      energy  minus-mout   mout-plot    min-plot     time/iter
   100  1.0132e+00  3.0247e-01  6.0556e-02  8.5673e-01  2.2979e+00 -2.2979e+00  1.7180e+00  0:04:07 1900
   101  1.0201e+00  3.0709e-01  6.1178e-02  8.5986e-01  2.3183e+00 -2.3183e+00  1.6905e+00  0:09:38 1899
   102  1.0283e+00  3.1222e-01  6.1791e-02  8.6440e-01  2.3384e+00 -2.3384e+00  1.6627e+00  0:07:42 1898
   103  1.0375e+00  3.1603e-01  6.1424e-02  8.6971e-01  2.3580e+00 -2.3580e+00  1.6345e+00  0:06:09 1897
   104  1.0478e+00  3.2001e-01  6.1731e-02  8.7608e-01  2.3771e+00 -2.3771e+00  1.6060e+00  0:04:55 1896
   105  1.0593e+00  3.2381e-01  6.2373e-02  8.8356e-01  2.3955e+00 -2.3955e+00  1.5772e+00  0:10:15 1895
   106  1.0715e+00  3.2808e-01  6.1565e-02  8.9181e-01  2.4134e+00 -2.4134e+00  1.5482e+00  0:08:12 1894
   107  1.0851e+00  3.3241e-01  6.2481e-02  9.0130e-01  2.4306e+00 -2.4306e+00  1.5189e+00  0:12:52 1893
   108  1.0994e+00  3.3492e-01  6.2067e-02  9.1157e-01  2.4471e+00 -2.4471e+00  1.4893e+00  0:10:17 1892
   109  1.1142e+00  3.3951e-01  6.2022e-02  9.2234e-01  2.4630e+00 -2.4630e+00  1.4594e+00  0:08:13 1891
   110  1.1298e+00  3.4523e-01  6.3948e-02  9.3412e-01  2.4782e+00 -2.4782e+00  1.4294e+00  0:06:35 1890

  iter  continuity  x-velocity  y-velocity      energy  minus-mout   mout-plot    min-plot     time/iter
   111  1.1468e+00  3.4749e-01  6.4128e-02  9.4713e-01  2.4927e+00 -2.4927e+00  1.3991e+00  0:05:15 1889
   112  1.1643e+00  3.5133e-01  7.1272e-02  9.6080e-01  2.5067e+00 -2.5067e+00  1.3687e+00  0:10:30 1888
   113  1.1825e+00  3.5627e-01  9.5347e-02  9.7535e-01  2.5201e+00 -2.5201e+00  1.3380e+00  0:08:24 1887
   114  1.2017e+00  3.6151e-01  1.0956e-01  9.9126e-01  2.5329e+00 -2.5329e+00  1.3072e+00  0:13:00 1886
   115  1.2237e+00  3.6729e-01  1.4294e-01  1.0100e+00  2.5453e+00 -2.5453e+00  1.2762e+00  0:16:41 1885
   116  1.2496e+00  3.7161e-01  1.7541e-01  1.0325e+00  2.5572e+00 -2.5572e+00  1.2451e+00  0:32:10 1884
   117  1.2800e+00  3.7714e-01  2.1343e-01  1.0597e+00  2.5688e+00 -2.5688e+00  1.2138e+00  0:25:44 1883
   118  1.3169e+00  3.8472e-01  2.5518e-01  1.0936e+00  2.5801e+00 -2.5801e+00  1.1824e+00  0:20:34 1882
   119  1.3553e+00  3.9581e-01  2.8475e-01  1.1303e+00  2.5910e+00 -2.5910e+00  1.1509e+00  0:22:43 1881
   120  1.3894e+00  4.0455e-01  2.8388e-01  1.1638e+00  2.6018e+00 -2.6018e+00  1.1192e+00  0:18:10 1880
   121  1.4117e+00  4.1017e-01  2.3784e-01  1.1873e+00  2.6124e+00 -2.6124e+00  1.0874e+00  0:20:47 1879

  iter  continuity  x-velocity  y-velocity      energy  minus-mout   mout-plot    min-plot     time/iter
   122  1.4297e+00  4.1094e-01  1.8010e-01  1.2073e+00  2.6228e+00 -2.6228e+00  1.0554e+00  0:22:53 1878
   123  1.4513e+00  4.1386e-01  1.4050e-01  1.2311e+00  2.6332e+00 -2.6332e+00  1.0232e+00  0:24:33 1877
   124  1.4731e+00  4.2013e-01  1.4004e-01  1.2548e+00  2.6436e+00 -2.6436e+00  9.9075e-01  0:19:38 1876
   125  1.4963e+00  4.2496e-01  1.5193e-01  1.2794e+00  2.6540e+00 -2.6540e+00  9.5796e-01  0:15:42 1875
   126  1.5170e+00  4.2846e-01  1.5693e-01  1.3010e+00  2.6644e+00 -2.6644e+00  9.2475e-01  0:18:48 1874
   127  1.5377e+00  4.3334e-01  1.4797e-01  1.3228e+00  2.6749e+00 -2.6749e+00  8.9099e-01  0:15:02 1873
   128  1.5600e+00  4.3723e-01  1.3555e-01  1.3465e+00  2.6855e+00 -2.6855e+00  8.5650e-01  0:18:15 1872
   129  1.5857e+00  4.4279e-01  1.2273e-01  1.3743e+00  2.6961e+00 -2.6961e+00  8.2101e-01  0:20:50 1871
   130  1.6005e+00  4.4583e-01  1.1185e-01  1.3907e+00  2.7069e+00 -2.7069e+00  7.8397e-01  0:16:40 1870
   131  1.6152e+00  4.5193e-01  1.0159e-01  1.4074e+00  2.7179e+00 -2.7179e+00  7.4409e-01  0:19:33 1869
   132  1.6295e+00  4.5251e-01  9.3984e-02  1.4241e+00  2.7289e+00 -2.7289e+00  6.9741e-01  0:21:51 1868

  iter  continuity  x-velocity  y-velocity      energy  minus-mout   mout-plot    min-plot     time/iter
   133  1.6429e+00  4.5909e-01  8.5809e-02  1.4397e+00  2.7401e+00 -2.7401e+00  6.3048e-01  0:17:29 1867
   134  1.6519e+00  4.5798e-01  8.2113e-02  1.4514e+00  2.7513e+00 -2.7513e+00  4.9323e-01  0:13:58 1866
   135  1.6567e+00  4.6366e-01  7.8754e-02  1.4582e+00  2.7626e+00 -2.7626e+00  5.7117e-02  0:11:10 1865

 Reversed flow on 8 faces (40.8% area) of pressure-inlet 5.
   136  1.6230e+00  4.6113e-01  7.7015e-02  1.4249e+00  2.7740e+00 -2.7740e+00 -1.3555e+00  0:15:09 1864

 Reversed flow on 34 faces (100.0% area) of pressure-inlet 5.
   137  1.4614e+00  4.6337e-01  7.5716e-02  1.2531e+00  2.7854e+00 -2.7854e+00 -1.5428e+00  0:12:07 1863

 Reversed flow on 34 faces (100.0% area) of pressure-inlet 5.
   138  1.4017e+00  4.6409e-01  7.3030e-02  1.1903e+00  2.7968e+00 -2.7968e+00 -1.5711e+00  0:09:41 1862

 Reversed flow on 34 faces (100.0% area) of pressure-inlet 5.
   139  1.3890e+00  4.6138e-01  7.0721e-02  1.1801e+00  2.8082e+00 -2.8082e+00 -1.5537e+00  0:07:45 1861

 Reversed flow on 34 faces (100.0% area) of pressure-inlet 5.
   140  1.3821e+00  4.6761e-01  6.8490e-02  1.1756e+00  2.8196e+00 -2.8196e+00 -1.5235e+00  0:06:11 1860

 Reversed flow on 34 faces (100.0% area) of pressure-inlet 5.
   141  1.3703e+00  4.5813e-01  6.6542e-02  1.1670e+00  2.8309e+00 -2.8309e+00 -1.4955e+00  0:11:09 1859

 Reversed flow on 34 faces (100.0% area) of pressure-inlet 5.
   142  1.3588e+00  4.6001e-01  6.5148e-02  1.1585e+00  2.8421e+00 -2.8421e+00 -1.4756e+00  0:08:55 1858

 Reversed flow on 34 faces (100.0% area) of pressure-inlet 5.
   143  1.3486e+00  4.6162e-01  6.3730e-02  1.1516e+00  2.8531e+00 -2.8531e+00 -1.4624e+00  0:07:08 1857

 Reversed flow on 34 faces (100.0% area) of pressure-inlet 5.

  iter  continuity  x-velocity  y-velocity      energy  minus-mout   mout-plot    min-plot     time/iter
   144  1.3355e+00  4.5446e-01  6.4744e-02  1.1422e+00  2.8640e+00 -2.8640e+00 -1.4534e+00  0:05:42 1856

 Reversed flow on 34 faces (100.0% area) of pressure-inlet 5.
   145  1.3247e+00  4.5719e-01  6.3862e-02  1.1346e+00  2.8747e+00 -2.8747e+00 -1.4458e+00  0:10:44 1855

 Reversed flow on 34 faces (100.0% area) of pressure-inlet 5.
   146  1.3133e+00  4.5154e-01  6.3204e-02  1.1268e+00  2.8851e+00 -2.8851e+00 -1.4378e+00  0:08:35 1854

 Reversed flow on 34 faces (100.0% area) of pressure-inlet 5.
   147  1.3007e+00  4.4655e-01  6.3465e-02  1.1180e+00  2.8954e+00 -2.8954e+00 -1.4285e+00  0:13:03 1853

 Reversed flow on 34 faces (100.0% area) of pressure-inlet 5.
   148  1.2898e+00  4.5045e-01  6.3954e-02  1.1108e+00  2.9053e+00 -2.9053e+00 -1.4176e+00  0:22:46 1852

 Reversed flow on 34 faces (100.0% area) of pressure-inlet 5.
   149  1.2785e+00  4.4233e-01  6.3582e-02  1.1034e+00  2.9150e+00 -2.9150e+00 -1.4047e+00  0:18:13 1851

 Reversed flow on 34 faces (100.0% area) of pressure-inlet 5.
   150  1.2652e+00  4.3582e-01  6.4047e-02  1.0941e+00  2.9244e+00 -2.9244e+00 -1.3899e+00  0:14:34 1850

 Reversed flow on 34 faces (100.0% area) of pressure-inlet 5.
   151  1.2543e+00  4.3941e-01  6.5869e-02  1.0871e+00  2.9335e+00 -2.9335e+00 -1.3730e+00  0:17:48 1849

 Reversed flow on 34 faces (100.0% area) of pressure-inlet 5.
   152  1.2435e+00  4.3301e-01  6.6282e-02  1.0802e+00  2.9422e+00 -2.9422e+00 -1.3539e+00  0:14:14 1848

 Reversed flow on 34 faces (100.0% area) of pressure-inlet 5.
   153  1.2314e+00  4.2373e-01  6.7332e-02  1.0722e+00  2.9506e+00 -2.9506e+00 -1.3326e+00  0:11:23 1847

 Reversed flow on 34 faces (100.0% area) of pressure-inlet 5.
   154  1.2212e+00  4.2347e-01  7.0252e-02  1.0659e+00  2.9587e+00 -2.9587e+00 -1.3090e+00  0:09:06 1846

 Reversed flow on 34 faces (100.0% area) of pressure-inlet 5.

  iter  continuity  x-velocity  y-velocity      energy  minus-mout   mout-plot    min-plot     time/iter
   155  1.2121e+00  4.2366e-01  7.2257e-02  1.0607e+00  2.9664e+00 -2.9664e+00 -1.2832e+00  0:07:17 1845

 Reversed flow on 34 faces (100.0% area) of pressure-inlet 5.
   156  1.2033e+00  4.1369e-01  7.1503e-02  1.0558e+00  2.9738e+00 -2.9738e+00 -1.2551e+00  0:11:58 1844

 Reversed flow on 34 faces (100.0% area) of pressure-inlet 5.
   157  1.1970e+00  4.0593e-01  7.1880e-02  1.0529e+00  2.9807e+00 -2.9807e+00 -1.2248e+00  0:09:34 1843

 Reversed flow on 34 faces (100.0% area) of pressure-inlet 5.
   158  1.1916e+00  4.0729e-01  7.4554e-02  1.0507e+00  2.9874e+00 -2.9874e+00 -1.1923e+00  0:13:47 1842

 Reversed flow on 34 faces (100.0% area) of pressure-inlet 5.
   159  1.1896e+00  4.0719e-01  7.5829e-02  1.0517e+00  2.9937e+00 -2.9937e+00 -1.1575e+00  0:11:02 1841

 Reversed flow on 34 faces (100.0% area) of pressure-inlet 5.
   160  1.1887e+00  3.9922e-01  7.6295e-02  1.0534e+00  2.9996e+00 -2.9996e+00 -1.1205e+00  0:14:57 1840

 Reversed flow on 34 faces (100.0% area) of pressure-inlet 5.
   161  1.1894e+00  3.9478e-01  7.3109e-02  1.0569e+00  3.0052e+00 -3.0052e+00 -1.0812e+00  0:11:57 1839

 Reversed flow on 34 faces (100.0% area) of pressure-inlet 5.
   162  1.1896e+00  3.9377e-01  6.7469e-02  1.0606e+00  3.0104e+00 -3.0104e+00 -1.0397e+00  0:15:41 1838

 Reversed flow on 34 faces (100.0% area) of pressure-inlet 5.
   163  1.1867e+00  3.8847e-01  6.5228e-02  1.0612e+00  3.0153e+00 -3.0153e+00 -9.9566e-01  0:12:32 1837

 Reversed flow on 34 faces (100.0% area) of pressure-inlet 5.
   164  1.1820e+00  3.7734e-01  6.5503e-02  1.0600e+00  3.0198e+00 -3.0198e+00 -9.4906e-01  0:10:02 1836

 Reversed flow on 34 faces (100.0% area) of pressure-inlet 5.
   165  1.1768e+00  3.6588e-01  6.8522e-02  1.0587e+00  3.0240e+00 -3.0240e+00 -8.9960e-01  0:08:01 1835

 Reversed flow on 34 faces (100.0% area) of pressure-inlet 5.

  iter  continuity  x-velocity  y-velocity      energy  minus-mout   mout-plot    min-plot     time/iter
   166  1.1688e+00  3.5517e-01  7.1760e-02  1.0546e+00  3.0279e+00 -3.0279e+00 -8.4691e-01  0:06:25 1834

 Reversed flow on 34 faces (100.0% area) of pressure-inlet 5.
   167  1.1577e+00  3.4875e-01  7.2327e-02  1.0472e+00  3.0315e+00 -3.0315e+00 -7.9041e-01  0:05:08 1833

 Reversed flow on 34 faces (100.0% area) of pressure-inlet 5.
   168  1.1444e+00  3.3878e-01  7.2683e-02  1.0373e+00  3.0347e+00 -3.0347e+00 -7.2927e-01  0:10:12 1832

 Reversed flow on 34 faces (100.0% area) of pressure-inlet 5.
   169  1.1282e+00  3.2853e-01  7.2531e-02  1.0241e+00  3.0377e+00 -3.0377e+00 -6.6224e-01  0:14:16 1831

 Reversed flow on 34 faces (100.0% area) of pressure-inlet 5.
   170  1.1089e+00  3.1783e-01  7.1677e-02  1.0074e+00  3.0403e+00 -3.0403e+00 -5.8741e-01  0:11:24 1830

 Reversed flow on 34 faces (100.0% area) of pressure-inlet 5.
   171  1.0862e+00  3.0959e-01  6.9992e-02  9.8715e-01  3.0427e+00 -3.0427e+00 -5.0168e-01  0:09:07 1829

 Reversed flow on 34 faces (100.0% area) of pressure-inlet 5.
   172  1.0623e+00  3.0124e-01  7.0403e-02  9.6532e-01  3.0447e+00 -3.0447e+00 -3.9943e-01  0:07:17 1828

 Reversed flow on 34 faces (100.0% area) of pressure-inlet 5.
   173  1.0377e+00  2.9011e-01  7.0357e-02  9.4280e-01  3.0465e+00 -3.0465e+00 -2.6829e-01  0:05:50 1827

 Reversed flow on 34 faces (100.0% area) of pressure-inlet 5.
   174  1.0141e+00  2.7870e-01  7.1530e-02  9.2108e-01  3.0480e+00 -3.0480e+00 -9.3237e-02  0:10:45 1826

 Reversed flow on 31 faces (90.4% area) of pressure-inlet 5.
   175  9.9162e-01  2.6665e-01  7.2197e-02  9.0037e-01  3.0493e+00 -3.0493e+00  1.0961e-01  0:08:36 1825

 Reversed flow on 2 faces (11.4% area) of pressure-inlet 5.
   176  9.7162e-01  2.5657e-01  7.1778e-02  8.8197e-01  3.0502e+00 -3.0502e+00  2.5984e-01  0:06:52 1824

  iter  continuity  x-velocity  y-velocity      energy  minus-mout   mout-plot    min-plot     time/iter
   177  9.5584e-01  2.4558e-01  6.9922e-02  8.6767e-01  3.0509e+00 -3.0509e+00  3.2951e-01  0:05:30 1823
   178  9.4451e-01  2.3532e-01  6.7254e-02  8.5781e-01  3.0514e+00 -3.0514e+00  3.8520e-01  0:04:24 1822
   179  9.3577e-01  2.2528e-01  6.3670e-02  8.5063e-01  3.0515e+00 -3.0515e+00  4.4018e-01  0:03:31 1821
   180  9.2771e-01  2.1505e-01  5.9548e-02  8.4427e-01  3.0515e+00 -3.0515e+00  4.9341e-01  0:08:52 1820
   181  9.1986e-01  2.0529e-01  5.5603e-02  8.3832e-01  3.0512e+00 -3.0512e+00  5.4356e-01  0:07:06 1819
   182  9.1225e-01  1.9567e-01  5.3066e-02  8.3277e-01  3.0507e+00 -3.0507e+00  5.9037e-01  0:05:40 1818
   183  9.0432e-01  1.8594e-01  5.2310e-02  8.2698e-01  3.0499e+00 -3.0499e+00  6.3412e-01  0:04:32 1817
   184  8.9634e-01  1.7695e-01  5.2835e-02  8.2116e-01  3.0489e+00 -3.0489e+00  6.7528e-01  0:03:38 1816
   185  8.8876e-01  1.6847e-01  5.4100e-02  8.1572e-01  3.0477e+00 -3.0477e+00  7.1433e-01  0:08:57 1815
   186  8.8197e-01  1.6125e-01  5.5905e-02  8.1104e-01  3.0463e+00 -3.0463e+00  7.5170e-01  0:07:09 1814
   187  8.7555e-01  1.5476e-01  5.6040e-02  8.0663e-01  3.0447e+00 -3.0447e+00  7.8781e-01  0:05:43 1813

  iter  continuity  x-velocity  y-velocity      energy  minus-mout   mout-plot    min-plot     time/iter
   188  8.6902e-01  1.4952e-01  5.5744e-02  8.0207e-01  3.0429e+00 -3.0429e+00  8.2309e-01  0:04:34 1812
   189  8.6316e-01  1.4299e-01  5.3249e-02  7.9812e-01  3.0408e+00 -3.0408e+00  8.5798e-01  0:03:39 1811
   190  8.5747e-01  1.3741e-01  5.1990e-02  7.9427e-01  3.0386e+00 -3.0386e+00  8.9298e-01  0:02:55 1810
   191  8.5170e-01  1.3263e-01  4.8044e-02  7.9025e-01  3.0362e+00 -3.0362e+00  9.2858e-01  0:08:22 1809
   192  8.4600e-01  1.2882e-01  4.6737e-02  7.8623e-01  3.0335e+00 -3.0335e+00  9.6532e-01  0:06:41 1808
   193  8.4051e-01  1.2582e-01  4.5728e-02  7.8231e-01  3.0306e+00 -3.0306e+00  1.0037e+00  0:05:21 1807
   194  8.3524e-01  1.2333e-01  4.5150e-02  7.7853e-01  3.0274e+00 -3.0274e+00  1.0444e+00  0:04:17 1806
   195  8.2975e-01  1.2132e-01  4.3158e-02  7.7444e-01  3.0239e+00 -3.0239e+00  1.0878e+00  0:03:25 1805
   196  8.2438e-01  1.1984e-01  4.1743e-02  7.7040e-01  3.0202e+00 -3.0202e+00  1.1344e+00  0:02:44 1804
   197  8.1905e-01  1.1887e-01  4.0688e-02  7.6632e-01  3.0160e+00 -3.0160e+00  1.1847e+00  0:02:11 1803
   198  8.1348e-01  1.1826e-01  3.9721e-02  7.6194e-01  3.0115e+00 -3.0115e+00  1.2389e+00  0:01:45 1802

  iter  continuity  x-velocity  y-velocity      energy  minus-mout   mout-plot    min-plot     time/iter
   199  8.0740e-01  1.1776e-01  3.9029e-02  7.5702e-01  3.0066e+00 -3.0066e+00  1.2972e+00  0:07:24 1801
   200  8.0113e-01  1.1756e-01  3.8781e-02  7.5183e-01  3.0013e+00 -3.0013e+00  1.3599e+00  0:05:55 1800
   201  7.9460e-01  1.1757e-01  3.8493e-02  7.4632e-01  2.9954e+00 -2.9954e+00  1.4268e+00  0:04:44 1799
   202  7.8763e-01  1.1765e-01  3.8139e-02  7.4033e-01  2.9890e+00 -2.9890e+00  1.4978e+00  0:03:47 1798
   203  7.8058e-01  1.1766e-01  3.7821e-02  7.3421e-01  2.9821e+00 -2.9821e+00  1.5726e+00  0:09:01 1797
   204  7.7335e-01  1.1762e-01  3.7629e-02  7.2786e-01  2.9746e+00 -2.9746e+00  1.6509e+00  0:07:12 1796
   205  7.6603e-01  1.1763e-01  3.7569e-02  7.2138e-01  2.9666e+00 -2.9666e+00  1.7323e+00  0:05:46 1795
   206  7.5859e-01  1.1758e-01  3.7148e-02  7.1475e-01  2.9579e+00 -2.9579e+00  1.8161e+00  0:04:36 1794
   207  7.5094e-01  1.1751e-01  3.6860e-02  7.0790e-01  2.9486e+00 -2.9486e+00  1.9019e+00  0:03:41 1793
   208  7.4343e-01  1.1728e-01  3.6549e-02  7.0117e-01  2.9388e+00 -2.9388e+00  1.9889e+00  0:02:57 1792
   209  7.3608e-01  1.1685e-01  3.6226e-02  6.9456e-01  2.9284e+00 -2.9284e+00  2.0765e+00  0:08:20 1791

  iter  continuity  x-velocity  y-velocity      energy  minus-mout   mout-plot    min-plot     time/iter
   210  7.2880e-01  1.1625e-01  3.6097e-02  6.8800e-01  2.9174e+00 -2.9174e+00  2.1642e+00  0:06:39 1790
   211  7.2161e-01  1.1547e-01  3.5981e-02  6.8151e-01  2.9060e+00 -2.9060e+00  2.2514e+00  0:05:19 1789
   212  7.1474e-01  1.1457e-01  3.5931e-02  6.7532e-01  2.8941e+00 -2.8941e+00  2.3374e+00  0:10:13 1788
   213  7.0828e-01  1.1355e-01  3.5842e-02  6.6950e-01  2.8819e+00 -2.8819e+00  2.4219e+00  0:08:10 1787
   214  7.0238e-01  1.1224e-01  3.5734e-02  6.6420e-01  2.8693e+00 -2.8693e+00  2.5044e+00  0:06:32 1786
   215  6.9681e-01  1.1085e-01  3.5252e-02  6.5922e-01  2.8564e+00 -2.8564e+00  2.5847e+00  0:11:10 1785
   216  6.9154e-01  1.0934e-01  3.5732e-02  6.5450e-01  2.8434e+00 -2.8434e+00  2.6624e+00  0:14:53 1784
   217  6.8663e-01  1.0767e-01  3.4142e-02  6.5013e-01  2.8303e+00 -2.8303e+00  2.7374e+00  0:11:54 1783
   218  6.8230e-01  1.0592e-01  3.2853e-02  6.4629e-01  2.8171e+00 -2.8171e+00  2.8096e+00  0:09:31 1782
   219  6.7829e-01  1.0407e-01  3.1827e-02  6.4276e-01  2.8039e+00 -2.8039e+00  2.8789e+00  0:13:33 1781
   220  6.7439e-01  1.0217e-01  3.0946e-02  6.3931e-01  2.7909e+00 -2.7909e+00  2.9454e+00  0:10:50 1780

  iter  continuity  x-velocity  y-velocity      energy  minus-mout   mout-plot    min-plot     time/iter
   221  6.7052e-01  1.0021e-01  3.0043e-02  6.3587e-01  2.7780e+00 -2.7780e+00  3.0092e+00  0:08:39 1779
   222  6.6666e-01  9.8223e-02  2.9041e-02  6.3242e-01  2.7653e+00 -2.7653e+00  3.0702e+00  0:12:51 1778
   223  6.6278e-01  9.6316e-02  2.8142e-02  6.2892e-01  2.7529e+00 -2.7529e+00  3.1287e+00  0:10:16 1777
   224  6.5898e-01  9.4448e-02  2.7307e-02  6.2549e-01  2.7408e+00 -2.7408e+00  3.1847e+00  0:08:13 1776
   225  6.5520e-01  9.2651e-02  2.6368e-02  6.2206e-01  2.7291e+00 -2.7291e+00  3.2384e+00  0:06:34 1775
   226  6.5139e-01  9.0923e-02  2.5487e-02  6.1858e-01  2.7177e+00 -2.7177e+00  3.2899e+00  0:11:10 1774
   227  6.4759e-01  8.9290e-02  2.4851e-02  6.1510e-01  2.7069e+00 -2.7069e+00  3.3392e+00  0:08:56 1773
   228  6.4377e-01  8.7770e-02  2.3829e-02  6.1158e-01  2.6964e+00 -2.6964e+00  3.3867e+00  0:07:08 1772
   229  6.4000e-01  8.6356e-02  2.2888e-02  6.0811e-01  2.6865e+00 -2.6865e+00  3.4322e+00  0:11:37 1771
   230  6.3635e-01  8.5028e-02  2.2104e-02  6.0474e-01  2.6770e+00 -2.6770e+00  3.4759e+00  0:09:17 1770
   231  6.3283e-01  8.3810e-02  2.1373e-02  6.0149e-01  2.6680e+00 -2.6680e+00  3.5180e+00  0:07:25 1769

  iter  continuity  x-velocity  y-velocity      energy  minus-mout   mout-plot    min-plot     time/iter
   232  6.2947e-01  8.2694e-02  2.0711e-02  5.9840e-01  2.6595e+00 -2.6595e+00  3.5584e+00  0:05:56 1768
   233  6.2625e-01  8.1663e-02  2.0093e-02  5.9544e-01  2.6515e+00 -2.6515e+00  3.5972e+00  0:04:45 1767
   234  6.2323e-01  8.0702e-02  1.9511e-02  5.9267e-01  2.6440e+00 -2.6440e+00  3.6346e+00  0:09:41 1766
   235  6.2047e-01  7.9808e-02  1.8995e-02  5.9016e-01  2.6370e+00 -2.6370e+00  3.6705e+00  0:07:44 1765
   236  6.1801e-01  7.8967e-02  1.8500e-02  5.8793e-01  2.6305e+00 -2.6305e+00  3.7051e+00  0:06:11 1764
   237  6.1584e-01  7.8136e-02  1.8075e-02  5.8598e-01  2.6244e+00 -2.6244e+00  3.7383e+00  0:04:57 1763
   238  6.1398e-01  7.7312e-02  1.7676e-02  5.8433e-01  2.6188e+00 -2.6188e+00  3.7702e+00  0:09:50 1762
   239  6.1240e-01  7.6487e-02  1.7317e-02  5.8296e-01  2.6137e+00 -2.6137e+00  3.8008e+00  0:07:52 1761
   240  6.1114e-01  7.5636e-02  1.6965e-02  5.8190e-01  2.6090e+00 -2.6090e+00  3.8302e+00  0:06:17 1760
   241  6.1015e-01  7.4747e-02  1.6648e-02  5.8110e-01  2.6047e+00 -2.6047e+00  3.8583e+00  0:05:01 1759
   242  6.0943e-01  7.3794e-02  1.6343e-02  5.8055e-01  2.6009e+00 -2.6009e+00  3.8853e+00  0:09:53 1758

  iter  continuity  x-velocity  y-velocity      energy  minus-mout   mout-plot    min-plot     time/iter
   243  6.0891e-01  7.2772e-02  1.6061e-02  5.8021e-01  2.5974e+00 -2.5974e+00  3.9111e+00  0:07:54 1757
   244  6.0856e-01  7.1674e-02  1.5783e-02  5.8003e-01  2.5944e+00 -2.5944e+00  3.9358e+00  0:06:19 1756
   245  6.0826e-01  7.0494e-02  1.5458e-02  5.7990e-01  2.5917e+00 -2.5917e+00  3.9594e+00  0:10:54 1755
   246  6.0799e-01  6.9234e-02  1.5142e-02  5.7979e-01  2.5893e+00 -2.5893e+00  3.9819e+00  0:08:43 1754
   247  6.0766e-01  6.7891e-02  1.4824e-02  5.7962e-01  2.5874e+00 -2.5874e+00  4.0034e+00  0:06:58 1753
   248  6.0723e-01  6.6469e-02  1.4491e-02  5.7933e-01  2.5857e+00 -2.5857e+00  4.0239e+00  0:05:34 1752
   249  6.0660e-01  6.4980e-02  1.4138e-02  5.7887e-01  2.5844e+00 -2.5844e+00  4.0435e+00  0:04:27 1751
   250  6.0571e-01  6.3446e-02  1.3814e-02  5.7813e-01  2.5834e+00 -2.5834e+00  4.0620e+00  0:09:24 1750
   251  6.0448e-01  6.1872e-02  1.3484e-02  5.7706e-01  2.5827e+00 -2.5827e+00  4.0797e+00  0:07:31 1749
   252  6.0286e-01  6.0285e-02  1.3171e-02  5.7561e-01  2.5822e+00 -2.5822e+00  4.0964e+00  0:06:00 1748
   253  6.0084e-01  5.8710e-02  1.2853e-02  5.7376e-01  2.5821e+00 -2.5821e+00  4.1123e+00  0:10:37 1747

  iter  continuity  x-velocity  y-velocity      energy  minus-mout   mout-plot    min-plot     time/iter
   254  5.9844e-01  5.7178e-02  1.2597e-02  5.7154e-01  2.5822e+00 -2.5822e+00  4.1273e+00  0:08:30 1746
   255  5.9563e-01  5.5721e-02  1.2391e-02  5.6891e-01  2.5826e+00 -2.5826e+00  4.1414e+00  0:06:48 1745
   256  5.9237e-01  5.4352e-02  1.2208e-02  5.6584e-01  2.5832e+00 -2.5832e+00  4.1548e+00  0:05:26 1744
   257  5.8873e-01  5.3119e-02  1.2076e-02  5.6240e-01  2.5841e+00 -2.5841e+00  4.1673e+00  0:10:09 1743
   258  5.8468e-01  5.2043e-02  1.1997e-02  5.5855e-01  2.5853e+00 -2.5853e+00  4.1791e+00  0:08:07 1742
   259  5.8027e-01  5.1146e-02  1.1977e-02  5.5436e-01  2.5866e+00 -2.5866e+00  4.1901e+00  0:06:29 1741
   260  5.7556e-01  5.0457e-02  1.1998e-02  5.4986e-01  2.5882e+00 -2.5882e+00  4.2004e+00  0:05:11 1740
   261  5.7059e-01  4.9996e-02  1.2056e-02  5.4511e-01  2.5900e+00 -2.5900e+00  4.2100e+00  0:09:57 1739
   262  5.6540e-01  4.9768e-02  1.2177e-02  5.4015e-01  2.5921e+00 -2.5921e+00  4.2189e+00  0:13:45 1738
   263  5.6004e-01  4.9772e-02  1.2320e-02  5.3501e-01  2.5943e+00 -2.5943e+00  4.2272e+00  0:10:59 1737
   264  5.5457e-01  4.9992e-02  1.2505e-02  5.2978e-01  2.5968e+00 -2.5968e+00  4.2348e+00  0:08:47 1736

  iter  continuity  x-velocity  y-velocity      energy  minus-mout   mout-plot    min-plot     time/iter
   265  5.4903e-01  5.0418e-02  1.2724e-02  5.2447e-01  2.5995e+00 -2.5995e+00  4.2418e+00  0:07:02 1735
   266  5.4346e-01  5.1025e-02  1.2957e-02  5.1912e-01  2.6024e+00 -2.6024e+00  4.2482e+00  0:05:37 1734
   267  5.3788e-01  5.1786e-02  1.3211e-02  5.1378e-01  2.6055e+00 -2.6055e+00  4.2540e+00  0:10:16 1733
   268  5.3235e-01  5.2667e-02  1.3478e-02  5.0848e-01  2.6088e+00 -2.6088e+00  4.2592e+00  0:08:13 1732
   269  5.2691e-01  5.3634e-02  1.3756e-02  5.0326e-01  2.6122e+00 -2.6122e+00  4.2639e+00  0:06:34 1731
   270  5.2154e-01  5.4652e-02  1.4037e-02  4.9811e-01  2.6159e+00 -2.6159e+00  4.2681e+00  0:05:15 1730
   271  5.1628e-01  5.5693e-02  1.4296e-02  4.9307e-01  2.6197e+00 -2.6197e+00  4.2717e+00  0:09:58 1729
   272  5.1116e-01  5.6722e-02  1.4556e-02  4.8817e-01  2.6237e+00 -2.6237e+00  4.2748e+00  0:07:58 1728
   273  5.0621e-01  5.7715e-02  1.4803e-02  4.8343e-01  2.6279e+00 -2.6279e+00  4.2775e+00  0:06:22 1727
   274  5.0139e-01  5.8643e-02  1.5030e-02  4.7881e-01  2.6322e+00 -2.6322e+00  4.2796e+00  0:10:51 1726
   275  4.9675e-01  5.9493e-02  1.5237e-02  4.7436e-01  2.6366e+00 -2.6366e+00  4.2813e+00  0:08:40 1725

  iter  continuity  x-velocity  y-velocity      energy  minus-mout   mout-plot    min-plot     time/iter
   276  4.9230e-01  6.0244e-02  1.5421e-02  4.7010e-01  2.6412e+00 -2.6412e+00  4.2826e+00  0:06:56 1724
   277  4.8805e-01  6.0882e-02  1.5580e-02  4.6604e-01  2.6458e+00 -2.6458e+00  4.2834e+00  0:05:33 1723
   278  4.8395e-01  6.1393e-02  1.5703e-02  4.6213e-01  2.6506e+00 -2.6506e+00  4.2837e+00  0:10:10 1722
   279  4.8005e-01  6.1771e-02  1.5787e-02  4.5840e-01  2.6554e+00 -2.6554e+00  4.2837e+00  0:08:08 1721
   280  4.7634e-01  6.2007e-02  1.5839e-02  4.5486e-01  2.6602e+00 -2.6602e+00  4.2832e+00  0:06:30 1720
   281  4.7282e-01  6.2096e-02  1.5852e-02  4.5151e-01  2.6651e+00 -2.6651e+00  4.2823e+00  0:05:12 1719
   282  4.6952e-01  6.2033e-02  1.5826e-02  4.4836e-01  2.6700e+00 -2.6700e+00  4.2810e+00  0:09:53 1718
   283  4.6642e-01  6.1815e-02  1.5759e-02  4.4540e-01  2.6749e+00 -2.6749e+00  4.2792e+00  0:07:54 1717
   284  4.6347e-01  6.1436e-02  1.5656e-02  4.4260e-01  2.6797e+00 -2.6797e+00  4.2771e+00  0:06:19 1716
   285  4.6073e-01  6.0897e-02  1.5523e-02  4.3999e-01  2.6846e+00 -2.6846e+00  4.2745e+00  0:05:03 1715
   286  4.5817e-01  6.0197e-02  1.5363e-02  4.3755e-01  2.6893e+00 -2.6893e+00  4.2714e+00  0:04:02 1714

  iter  continuity  x-velocity  y-velocity      energy  minus-mout   mout-plot    min-plot     time/iter
   287  4.5578e-01  5.9340e-02  1.5178e-02  4.3529e-01  2.6940e+00 -2.6940e+00  4.2680e+00  0:08:56 1713
   288  4.5356e-01  5.8333e-02  1.4961e-02  4.3319e-01  2.6986e+00 -2.6986e+00  4.2640e+00  0:07:09 1712
   289  4.5151e-01  5.7182e-02  1.4710e-02  4.3124e-01  2.7031e+00 -2.7031e+00  4.2595e+00  0:05:43 1711
   290  4.4961e-01  5.5899e-02  1.4420e-02  4.2944e-01  2.7075e+00 -2.7075e+00  4.2545e+00  0:04:34 1710
   291  4.4787e-01  5.4498e-02  1.4083e-02  4.2780e-01  2.7117e+00 -2.7117e+00  4.2490e+00  0:09:21 1709
   292  4.4626e-01  5.2997e-02  1.3721e-02  4.2629e-01  2.7158e+00 -2.7158e+00  4.2428e+00  0:07:29 1708
   293  4.4476e-01  5.1415e-02  1.3345e-02  4.2487e-01  2.7197e+00 -2.7197e+00  4.2360e+00  0:05:59 1707
   294  4.4334e-01  4.9769e-02  1.2953e-02  4.2354e-01  2.7235e+00 -2.7235e+00  4.2285e+00  0:04:47 1706
   295  4.4200e-01  4.8081e-02  1.2555e-02  4.2229e-01  2.7270e+00 -2.7270e+00  4.2202e+00  0:09:30 1705
   296  4.4075e-01  4.6377e-02  1.2139e-02  4.2111e-01  2.7304e+00 -2.7304e+00  4.2110e+00  0:07:36 1704
   297  4.3955e-01  4.4678e-02  1.1700e-02  4.1999e-01  2.7337e+00 -2.7337e+00  4.2009e+00  0:06:05 1703

  iter  continuity  x-velocity  y-velocity      energy  minus-mout   mout-plot    min-plot     time/iter
   298  4.3838e-01  4.3009e-02  1.1247e-02  4.1889e-01  2.7367e+00 -2.7367e+00  4.1898e+00  0:04:51 1702
   299  4.3722e-01  4.1393e-02  1.0784e-02  4.1780e-01  2.7396e+00 -2.7396e+00  4.1776e+00  0:09:33 1701
   300  4.3606e-01  3.9852e-02  1.0313e-02  4.1671e-01  2.7422e+00 -2.7422e+00  4.1641e+00  0:07:38 1700
   301  4.3488e-01  3.8411e-02  9.8401e-03  4.1560e-01  2.7447e+00 -2.7447e+00  4.1493e+00  0:06:06 1699
   302  4.3366e-01  3.7086e-02  9.3670e-03  4.1445e-01  2.7470e+00 -2.7470e+00  4.1330e+00  0:04:53 1698
   303  4.3237e-01  3.5893e-02  8.9104e-03  4.1323e-01  2.7491e+00 -2.7491e+00  4.1151e+00  0:09:34 1697
   304  4.3098e-01  3.4846e-02  8.4755e-03  4.1192e-01  2.7510e+00 -2.7510e+00  4.0954e+00  0:07:39 1696
   305  4.2949e-01  3.3953e-02  8.0564e-03  4.1050e-01  2.7528e+00 -2.7528e+00  4.0739e+00  0:06:07 1695
   306  4.2787e-01  3.3218e-02  7.6759e-03  4.0895e-01  2.7543e+00 -2.7543e+00  4.0502e+00  0:10:32 1694
   307  4.2609e-01  3.2643e-02  7.3286e-03  4.0725e-01  2.7557e+00 -2.7557e+00  4.0243e+00  0:08:25 1693
   308  4.2414e-01  3.2224e-02  7.0225e-03  4.0538e-01  2.7570e+00 -2.7570e+00  3.9959e+00  0:12:22 1692

  iter  continuity  x-velocity  y-velocity      energy  minus-mout   mout-plot    min-plot     time/iter
   309  4.2199e-01  3.1954e-02  6.7540e-03  4.0332e-01  2.7580e+00 -2.7580e+00  3.9650e+00  0:09:54 1691
   310  4.1962e-01  3.1824e-02  6.5315e-03  4.0105e-01  2.7589e+00 -2.7589e+00  3.9313e+00  0:07:55 1690
   311  4.1702e-01  3.1826e-02  6.3458e-03  3.9855e-01  2.7597e+00 -2.7597e+00  3.8946e+00  0:06:19 1689
   312  4.1416e-01  3.1945e-02  6.1999e-03  3.9581e-01  2.7603e+00 -2.7603e+00  3.8548e+00  0:05:03 1688
   313  4.1106e-01  3.2172e-02  6.0989e-03  3.9283e-01  2.7609e+00 -2.7609e+00  3.8116e+00  0:09:40 1687
   314  4.0768e-01  3.2493e-02  6.0338e-03  3.8958e-01  2.7612e+00 -2.7612e+00  3.7650e+00  0:07:44 1686
   315  4.0403e-01  3.2900e-02  6.0013e-03  3.8607e-01  2.7615e+00 -2.7615e+00  3.7147e+00  0:06:11 1685
   316  4.0011e-01  3.3384e-02  6.0081e-03  3.8230e-01  2.7617e+00 -2.7617e+00  3.6606e+00  0:04:56 1684
   317  3.9596e-01  3.3935e-02  6.0411e-03  3.7831e-01  2.7617e+00 -2.7617e+00  3.6026e+00  0:09:34 1683
   318  3.9159e-01  3.4546e-02  6.0916e-03  3.7412e-01  2.7617e+00 -2.7617e+00  3.5406e+00  0:07:39 1682
   319  3.8706e-01  3.5213e-02  6.1603e-03  3.6977e-01  2.7616e+00 -2.7616e+00  3.4744e+00  0:06:07 1681

  iter  continuity  x-velocity  y-velocity      energy  minus-mout   mout-plot    min-plot     time/iter
   320  3.8240e-01  3.5928e-02  6.2490e-03  3.6532e-01  2.7615e+00 -2.7615e+00  3.4040e+00  0:04:53 1680
   321  3.7771e-01  3.6685e-02  6.3532e-03  3.6083e-01  2.7613e+00 -2.7613e+00  3.3293e+00  0:09:30 1679
   322  3.7306e-01  3.7478e-02  6.4732e-03  3.5640e-01  2.7610e+00 -2.7610e+00  3.2503e+00  0:07:36 1678
   323  3.6854e-01  3.8300e-02  6.6040e-03  3.5210e-01  2.7607e+00 -2.7607e+00  3.1670e+00  0:06:04 1677
   324  3.6429e-01  3.9146e-02  6.7455e-03  3.4808e-01  2.7604e+00 -2.7604e+00  3.0793e+00  0:04:51 1676
   325  3.6042e-01  4.0007e-02  6.8970e-03  3.4445e-01  2.7600e+00 -2.7600e+00  2.9874e+00  0:09:28 1675
   326  3.5707e-01  4.0878e-02  7.0570e-03  3.4133e-01  2.7596e+00 -2.7596e+00  2.8913e+00  0:07:34 1674
   327  3.5440e-01  4.1751e-02  7.2239e-03  3.3889e-01  2.7592e+00 -2.7592e+00  2.7910e+00  0:06:03 1673
   328  3.5255e-01  4.2617e-02  7.4017e-03  3.3726e-01  2.7588e+00 -2.7588e+00  2.6867e+00  0:04:50 1672
   329  3.5166e-01  4.3471e-02  7.5883e-03  3.3658e-01  2.7583e+00 -2.7583e+00  2.5785e+00  0:03:52 1671
   330  3.5188e-01  4.4304e-02  7.7836e-03  3.3699e-01  2.7578e+00 -2.7578e+00  2.4665e+00  0:08:40 1670

  iter  continuity  x-velocity  y-velocity      energy  minus-mout   mout-plot    min-plot     time/iter
   331  3.5334e-01  4.5111e-02  7.9871e-03  3.3861e-01  2.7573e+00 -2.7573e+00  2.3508e+00  0:06:55 1669
   332  3.5613e-01  4.5886e-02  8.1998e-03  3.4153e-01  2.7568e+00 -2.7568e+00  2.2315e+00  0:05:32 1668
   333  3.6036e-01  4.6623e-02  8.4215e-03  3.4585e-01  2.7562e+00 -2.7562e+00  2.1088e+00  0:09:59 1667
   334  3.6607e-01  4.7318e-02  8.6544e-03  3.5161e-01  2.7556e+00 -2.7556e+00  1.9825e+00  0:07:59 1666
   335  3.7331e-01  4.7968e-02  8.8990e-03  3.5885e-01  2.7549e+00 -2.7549e+00  1.8528e+00  0:06:23 1665
   336  3.8213e-01  4.8571e-02  9.1532e-03  3.6761e-01  2.7542e+00 -2.7542e+00  1.7196e+00  0:05:06 1664
   337  3.9256e-01  4.9126e-02  9.4195e-03  3.7792e-01  2.7535e+00 -2.7535e+00  1.5826e+00  0:04:05 1663
   338  4.0463e-01  4.9632e-02  9.6957e-03  3.8980e-01  2.7526e+00 -2.7526e+00  1.4414e+00  0:03:16 1662
   339  4.1842e-01  5.0091e-02  9.9850e-03  4.0334e-01  2.7517e+00 -2.7517e+00  1.2951e+00  0:02:36 1661
   340  4.3415e-01  5.0504e-02  1.0291e-02  4.1872e-01  2.7508e+00 -2.7508e+00  1.1423e+00  0:07:37 1660
   341  4.5220e-01  5.0875e-02  1.0604e-02  4.3634e-01  2.7497e+00 -2.7497e+00  9.8048e-01  0:06:05 1659

  iter  continuity  x-velocity  y-velocity      energy  minus-mout   mout-plot    min-plot     time/iter
   342  4.7338e-01  5.1207e-02  1.0925e-02  4.5697e-01  2.7486e+00 -2.7486e+00  8.0438e-01  0:04:52 1658
   343  4.9959e-01  5.1504e-02  1.1254e-02  4.8245e-01  2.7474e+00 -2.7474e+00  6.0169e-01  0:03:54 1657
   344  5.3467e-01  5.1770e-02  1.1591e-02  5.1651e-01  2.7461e+00 -2.7461e+00  3.3948e-01  0:03:07 1656
   345  5.7168e-01  5.2038e-02  1.1932e-02  5.5240e-01  2.7447e+00 -2.7447e+00 -3.7063e-02  0:02:29 1655

 Reversed flow on 14 faces (65.2% area) of pressure-inlet 5.
   346  6.0000e-01  5.2445e-02  1.2263e-02  5.7988e-01  2.7432e+00 -2.7432e+00 -5.3827e-01  0:01:59 1654

 Reversed flow on 34 faces (100.0% area) of pressure-inlet 5.
   347  6.3237e-01  5.1786e-02  1.2662e-02  6.1125e-01  2.7416e+00 -2.7416e+00 -6.9267e-01  0:07:06 1653

 Reversed flow on 34 faces (100.0% area) of pressure-inlet 5.
   348  6.5352e-01  5.1236e-02  1.3046e-02  6.3173e-01  2.7399e+00 -2.7399e+00 -7.5960e-01  0:05:41 1652

 Reversed flow on 34 faces (100.0% area) of pressure-inlet 5.
   349  6.7110e-01  5.1258e-02  1.3443e-02  6.4876e-01  2.7381e+00 -2.7381e+00 -7.9433e-01  0:04:32 1651

 Reversed flow on 34 faces (100.0% area) of pressure-inlet 5.
   350  6.8402e-01  5.1469e-02  1.3826e-02  6.6127e-01  2.7363e+00 -2.7363e+00 -8.1035e-01  0:03:38 1650

 Reversed flow on 34 faces (100.0% area) of pressure-inlet 5.
   351  6.9397e-01  5.1769e-02  1.4253e-02  6.7091e-01  2.7343e+00 -2.7343e+00 -8.1240e-01  0:02:54 1649

 Reversed flow on 34 faces (100.0% area) of pressure-inlet 5.
   352  7.0168e-01  5.2133e-02  1.4719e-02  6.7837e-01  2.7322e+00 -2.7322e+00 -8.0219e-01  0:07:49 1648

 Reversed flow on 34 faces (100.0% area) of pressure-inlet 5.

  iter  continuity  x-velocity  y-velocity      energy  minus-mout   mout-plot    min-plot     time/iter
   353  7.0807e-01  5.2553e-02  1.5186e-02  6.8455e-01  2.7301e+00 -2.7301e+00 -7.8041e-01  0:06:15 1647

 Reversed flow on 34 faces (100.0% area) of pressure-inlet 5.
   354  7.1269e-01  5.3017e-02  1.5666e-02  6.8903e-01  2.7279e+00 -2.7279e+00 -7.4679e-01  0:05:00 1646

 Reversed flow on 34 faces (100.0% area) of pressure-inlet 5.
   355  7.1433e-01  5.3517e-02  1.6112e-02  6.9062e-01  2.7255e+00 -2.7255e+00 -7.0087e-01  0:04:00 1645

 Reversed flow on 34 faces (100.0% area) of pressure-inlet 5.
   356  7.1207e-01  5.4040e-02  1.6520e-02  6.8843e-01  2.7231e+00 -2.7231e+00 -6.4196e-01  0:03:12 1644

 Reversed flow on 34 faces (100.0% area) of pressure-inlet 5.
   357  7.0503e-01  5.4574e-02  1.6893e-02  6.8162e-01  2.7207e+00 -2.7207e+00 -5.6833e-01  0:08:02 1643

 Reversed flow on 34 faces (100.0% area) of pressure-inlet 5.
   358  6.9232e-01  5.5107e-02  1.7264e-02  6.6931e-01  2.7182e+00 -2.7182e+00 -4.7676e-01  0:06:25 1642

 Reversed flow on 34 faces (100.0% area) of pressure-inlet 5.
   359  6.7020e-01  5.5629e-02  1.7575e-02  6.4789e-01  2.7156e+00 -2.7156e+00 -3.6027e-01  0:05:08 1641

 Reversed flow on 34 faces (100.0% area) of pressure-inlet 5.
   360  6.3969e-01  5.6126e-02  1.7893e-02  6.1837e-01  2.7129e+00 -2.7129e+00 -2.0205e-01  0:04:06 1640

 Reversed flow on 34 faces (100.0% area) of pressure-inlet 5.
   361  5.9672e-01  5.6578e-02  1.8165e-02  5.7677e-01  2.7102e+00 -2.7102e+00 -3.5083e-04  0:03:17 1639

 Reversed flow on 21 faces (38.1% area) of pressure-inlet 5.
   362  5.4824e-01  5.7002e-02  1.8397e-02  5.2985e-01  2.7075e+00 -2.7075e+00  2.3356e-01  0:02:37 1638
   363  4.9902e-01  5.7427e-02  1.8607e-02  4.8220e-01  2.7047e+00 -2.7047e+00  3.2580e-01  0:02:06 1637

  iter  continuity  x-velocity  y-velocity      energy  minus-mout   mout-plot    min-plot     time/iter
   364  4.4897e-01  5.7780e-02  1.8746e-02  4.3377e-01  2.7019e+00 -2.7019e+00  3.8579e-01  0:07:08 1636
   365  4.1539e-01  5.8116e-02  1.8857e-02  4.0128e-01  2.6990e+00 -2.6990e+00  4.4972e-01  0:05:42 1635
   366  3.9475e-01  5.8469e-02  1.8940e-02  3.8132e-01  2.6962e+00 -2.6962e+00  5.1789e-01  0:04:33 1634
   367  3.8002e-01  5.8836e-02  1.9014e-02  3.6709e-01  2.6933e+00 -2.6933e+00  5.8807e-01  0:03:39 1633
   368  3.6733e-01  5.9207e-02  1.9096e-02  3.5484e-01  2.6904e+00 -2.6904e+00  6.5962e-01  0:02:55 1632
   369  3.5458e-01  5.9575e-02  1.9190e-02  3.4254e-01  2.6875e+00 -2.6875e+00  7.3279e-01  0:02:20 1631
   370  3.4100e-01  5.9935e-02  1.9297e-02  3.2942e-01  2.6846e+00 -2.6846e+00  8.0792e-01  0:01:52 1630
   371  3.2650e-01  6.0283e-02  1.9413e-02  3.1541e-01  2.6818e+00 -2.6818e+00  8.8506e-01  0:01:29 1629
   372  3.1130e-01  6.0615e-02  1.9532e-02  3.0072e-01  2.6789e+00 -2.6789e+00  9.6392e-01  0:06:37 1628
   373  2.9569e-01  6.0930e-02  1.9643e-02  2.8564e-01  2.6761e+00 -2.6761e+00  1.0439e+00  0:05:17 1627
   374  2.7997e-01  6.1226e-02  1.9740e-02  2.7046e-01  2.6732e+00 -2.6732e+00  1.1244e+00  0:04:14 1626

  iter  continuity  x-velocity  y-velocity      energy  minus-mout   mout-plot    min-plot     time/iter
   375  2.6447e-01  6.1499e-02  1.9813e-02  2.5549e-01  2.6704e+00 -2.6704e+00  1.2044e+00  0:03:23 1625
   376  2.4951e-01  6.1748e-02  1.9858e-02  2.4105e-01  2.6677e+00 -2.6677e+00  1.2832e+00  0:02:42 1624
   377  2.3542e-01  6.1969e-02  1.9868e-02  2.2746e-01  2.6650e+00 -2.6650e+00  1.3602e+00  0:02:10 1623
   378  2.2248e-01  6.2160e-02  1.9842e-02  2.1497e-01  2.6623e+00 -2.6623e+00  1.4347e+00  0:01:44 1622
   379  2.1091e-01  6.2319e-02  1.9780e-02  2.0382e-01  2.6596e+00 -2.6596e+00  1.5063e+00  0:06:47 1621
   380  2.0089e-01  6.2444e-02  1.9682e-02  1.9417e-01  2.6570e+00 -2.6570e+00  1.5748e+00  0:05:25 1620
   381  1.9251e-01  6.2532e-02  1.9549e-02  1.8609e-01  2.6545e+00 -2.6545e+00  1.6399e+00  0:04:20 1619
   382  1.8577e-01  6.2585e-02  1.9385e-02  1.7961e-01  2.6520e+00 -2.6520e+00  1.7018e+00  0:03:28 1618
   383  1.8062e-01  6.2602e-02  1.9189e-02  1.7466e-01  2.6496e+00 -2.6496e+00  1.7605e+00  0:02:46 1617
   384  1.7695e-01  6.2584e-02  1.8965e-02  1.7112e-01  2.6472e+00 -2.6472e+00  1.8161e+00  0:02:13 1616
   385  1.7459e-01  6.2535e-02  1.8716e-02  1.6885e-01  2.6449e+00 -2.6449e+00  1.8689e+00  0:01:46 1615

  iter  continuity  x-velocity  y-velocity      energy  minus-mout   mout-plot    min-plot     time/iter
   386  1.7336e-01  6.2459e-02  1.8443e-02  1.6766e-01  2.6426e+00 -2.6426e+00  1.9190e+00  0:06:48 1614
   387  1.7304e-01  6.2358e-02  1.8147e-02  1.6734e-01  2.6404e+00 -2.6404e+00  1.9666e+00  0:05:26 1613
   388  1.7345e-01  6.2236e-02  1.7829e-02  1.6772e-01  2.6382e+00 -2.6382e+00  2.0120e+00  0:04:21 1612
   389  1.7439e-01  6.2100e-02  1.7491e-02  1.6859e-01  2.6361e+00 -2.6361e+00  2.0553e+00  0:03:28 1611
   390  1.7569e-01  6.1953e-02  1.7131e-02  1.6981e-01  2.6341e+00 -2.6341e+00  2.0966e+00  0:02:47 1610
   391  1.7720e-01  6.1802e-02  1.6749e-02  1.7123e-01  2.6321e+00 -2.6321e+00  2.1361e+00  0:02:13 1609
   392  1.7881e-01  6.1650e-02  1.6346e-02  1.7273e-01  2.6302e+00 -2.6302e+00  2.1739e+00  0:01:47 1608
   393  1.8039e-01  6.1504e-02  1.5923e-02  1.7420e-01  2.6283e+00 -2.6283e+00  2.2100e+00  0:06:47 1607
   394  1.8187e-01  6.1369e-02  1.5480e-02  1.7557e-01  2.6264e+00 -2.6264e+00  2.2447e+00  0:05:25 1606
   395  1.8317e-01  6.1249e-02  1.5022e-02  1.7676e-01  2.6247e+00 -2.6247e+00  2.2779e+00  0:04:20 1605
   396  1.8425e-01  6.1148e-02  1.4551e-02  1.7773e-01  2.6229e+00 -2.6229e+00  2.3097e+00  0:03:28 1604

  iter  continuity  x-velocity  y-velocity      energy  minus-mout   mout-plot    min-plot     time/iter
   397  1.8505e-01  6.1071e-02  1.4071e-02  1.7843e-01  2.6212e+00 -2.6212e+00  2.3402e+00  0:02:46 1603
   398  1.8556e-01  6.1019e-02  1.3588e-02  1.7884e-01  2.6195e+00 -2.6195e+00  2.3694e+00  0:07:33 1602
   399  1.8575e-01  6.0995e-02  1.3109e-02  1.7894e-01  2.6179e+00 -2.6179e+00  2.3974e+00  0:06:02 1601
   400  1.8561e-01  6.1000e-02  1.2642e-02  1.7873e-01  2.6163e+00 -2.6163e+00  2.4243e+00  0:04:50 1600
   401  1.8514e-01  6.1035e-02  1.2192e-02  1.7819e-01  2.6147e+00 -2.6147e+00  2.4500e+00  0:03:52 1599
   402  1.8435e-01  6.1099e-02  1.1768e-02  1.7734e-01  2.6131e+00 -2.6131e+00  2.4746e+00  0:08:25 1598
   403  1.8324e-01  6.1192e-02  1.1377e-02  1.7617e-01  2.6115e+00 -2.6115e+00  2.4983e+00  0:06:44 1597
   404  1.8182e-01  6.1310e-02  1.1025e-02  1.7471e-01  2.6099e+00 -2.6099e+00  2.5209e+00  0:05:23 1596
   405  1.8011e-01  6.1451e-02  1.0715e-02  1.7297e-01  2.6082e+00 -2.6082e+00  2.5426e+00  0:04:18 1595
   406  1.7812e-01  6.1612e-02  1.0453e-02  1.7096e-01  2.6066e+00 -2.6066e+00  2.5633e+00  0:03:26 1594
   407  1.7587e-01  6.1786e-02  1.0239e-02  1.6869e-01  2.6050e+00 -2.6050e+00  2.5831e+00  0:02:45 1593

  iter  continuity  x-velocity  y-velocity      energy  minus-mout   mout-plot    min-plot     time/iter
   408  1.7339e-01  6.1971e-02  1.0073e-02  1.6620e-01  2.6033e+00 -2.6033e+00  2.6020e+00  0:02:12 1592
   409  1.7068e-01  6.2160e-02  9.9534e-03  1.6349e-01  2.6015e+00 -2.6015e+00  2.6201e+00  0:07:04 1591
   410  1.6776e-01  6.2348e-02  9.8784e-03  1.6058e-01  2.5997e+00 -2.5997e+00  2.6373e+00  0:05:39 1590
   411  1.6466e-01  6.2528e-02  9.8454e-03  1.5749e-01  2.5978e+00 -2.5978e+00  2.6537e+00  0:04:31 1589
   412  1.6138e-01  6.2695e-02  9.8514e-03  1.5424e-01  2.5959e+00 -2.5959e+00  2.6693e+00  0:03:36 1588
   413  1.5796e-01  6.2843e-02  9.8932e-03  1.5084e-01  2.5938e+00 -2.5938e+00  2.6842e+00  0:02:53 1587
   414  1.5440e-01  6.2967e-02  9.9681e-03  1.4730e-01  2.5917e+00 -2.5917e+00  2.6983e+00  0:07:36 1586
   415  1.5072e-01  6.3060e-02  1.0074e-02  1.4366e-01  2.5895e+00 -2.5895e+00  2.7116e+00  0:06:04 1585
   416  1.4695e-01  6.3117e-02  1.0209e-02  1.3993e-01  2.5871e+00 -2.5871e+00  2.7242e+00  0:04:51 1584
   417  1.4312e-01  6.3133e-02  1.0371e-02  1.3613e-01  2.5846e+00 -2.5846e+00  2.7361e+00  0:09:09 1583
   418  1.3924e-01  6.3104e-02  1.0558e-02  1.3229e-01  2.5820e+00 -2.5820e+00  2.7473e+00  0:07:19 1582

  iter  continuity  x-velocity  y-velocity      energy  minus-mout   mout-plot    min-plot     time/iter
   419  1.3534e-01  6.3025e-02  1.0767e-02  1.2843e-01  2.5793e+00 -2.5793e+00  2.7578e+00  0:05:51 1581
   420  1.3146e-01  6.2892e-02  1.0995e-02  1.2459e-01  2.5764e+00 -2.5764e+00  2.7677e+00  0:04:41 1580
   421  1.2761e-01  6.2702e-02  1.1239e-02  1.2078e-01  2.5734e+00 -2.5734e+00  2.7768e+00  0:03:44 1579
   422  1.2385e-01  6.2453e-02  1.1494e-02  1.1704e-01  2.5702e+00 -2.5702e+00  2.7853e+00  0:02:59 1578
   423  1.2018e-01  6.2141e-02  1.1757e-02  1.1341e-01  2.5669e+00 -2.5669e+00  2.7931e+00  0:02:23 1577
   424  1.1666e-01  6.1766e-02  1.2023e-02  1.0991e-01  2.5634e+00 -2.5634e+00  2.8002e+00  0:07:10 1576
   425  1.1331e-01  6.1325e-02  1.2288e-02  1.0658e-01  2.5597e+00 -2.5597e+00  2.8067e+00  0:05:44 1575
   426  1.1016e-01  6.0817e-02  1.2548e-02  1.0344e-01  2.5559e+00 -2.5559e+00  2.8126e+00  0:04:35 1574
   427  1.0724e-01  6.0243e-02  1.2799e-02  1.0053e-01  2.5519e+00 -2.5519e+00  2.8178e+00  0:03:40 1573
   428  1.0458e-01  5.9601e-02  1.3036e-02  9.7866e-02  2.5478e+00 -2.5478e+00  2.8224e+00  0:02:56 1572
   429  1.0219e-01  5.8892e-02  1.3257e-02  9.5477e-02  2.5436e+00 -2.5436e+00  2.8264e+00  0:02:20 1571

  iter  continuity  x-velocity  y-velocity      energy  minus-mout   mout-plot    min-plot     time/iter
   430  1.0011e-01  5.8116e-02  1.3458e-02  9.3380e-02  2.5391e+00 -2.5391e+00  2.8297e+00  0:01:52 1570
   431  9.8326e-02  5.7276e-02  1.3636e-02  9.1587e-02  2.5346e+00 -2.5346e+00  2.8325e+00  0:06:44 1569
   432  9.6861e-02  5.6371e-02  1.3790e-02  9.0106e-02  2.5299e+00 -2.5299e+00  2.8346e+00  0:05:23 1568
   433  9.5712e-02  5.5405e-02  1.3916e-02  8.8939e-02  2.5251e+00 -2.5251e+00  2.8361e+00  0:04:18 1567
   434  9.4875e-02  5.4379e-02  1.4014e-02  8.8083e-02  2.5202e+00 -2.5202e+00  2.8369e+00  0:03:26 1566
   435  9.4341e-02  5.3295e-02  1.4080e-02  8.7528e-02  2.5153e+00 -2.5153e+00  2.8372e+00  0:02:45 1565
   436  9.4095e-02  5.2158e-02  1.4113e-02  8.7261e-02  2.5102e+00 -2.5102e+00  2.8369e+00  0:02:12 1564
   437  9.4119e-02  5.0969e-02  1.4111e-02  8.7265e-02  2.5051e+00 -2.5051e+00  2.8360e+00  0:01:45 1563
   438  9.4394e-02  4.9733e-02  1.4075e-02  8.7520e-02  2.5000e+00 -2.5000e+00  2.8344e+00  0:06:37 1562
   439  9.4896e-02  4.8454e-02  1.4001e-02  8.8002e-02  2.4949e+00 -2.4949e+00  2.8323e+00  0:05:17 1561
   440  9.5600e-02  4.7136e-02  1.3891e-02  8.8687e-02  2.4897e+00 -2.4897e+00  2.8297e+00  0:04:14 1560

  iter  continuity  x-velocity  y-velocity      energy  minus-mout   mout-plot    min-plot     time/iter
   441  9.6482e-02  4.5784e-02  1.3743e-02  8.9550e-02  2.4846e+00 -2.4846e+00  2.8264e+00  0:03:23 1559
   442  9.7516e-02  4.4403e-02  1.3558e-02  9.0567e-02  2.4796e+00 -2.4796e+00  2.8226e+00  0:02:42 1558
   443  9.8679e-02  4.2998e-02  1.3337e-02  9.1713e-02  2.4746e+00 -2.4746e+00  2.8183e+00  0:07:21 1557
   444  9.9946e-02  4.1576e-02  1.3082e-02  9.2964e-02  2.4697e+00 -2.4697e+00  2.8133e+00  0:05:53 1556
   445  1.0130e-01  4.0142e-02  1.2792e-02  9.4298e-02  2.4650e+00 -2.4650e+00  2.8079e+00  0:04:42 1555
   446  1.0271e-01  3.8702e-02  1.2473e-02  9.5693e-02  2.4603e+00 -2.4603e+00  2.8019e+00  0:03:45 1554
   447  1.0416e-01  3.7264e-02  1.2125e-02  9.7130e-02  2.4559e+00 -2.4559e+00  2.7955e+00  0:03:00 1553
   448  1.0563e-01  3.5835e-02  1.1752e-02  9.8592e-02  2.4516e+00 -2.4516e+00  2.7885e+00  0:07:34 1552
   449  1.0711e-01  3.4421e-02  1.1359e-02  1.0006e-01  2.4476e+00 -2.4476e+00  2.7811e+00  0:06:03 1551
   450  1.0858e-01  3.3030e-02  1.0949e-02  1.0152e-01  2.4438e+00 -2.4438e+00  2.7732e+00  0:04:50 1550
   451  1.1002e-01  3.1671e-02  1.0527e-02  1.0296e-01  2.4402e+00 -2.4402e+00  2.7648e+00  0:03:52 1549

  iter  continuity  x-velocity  y-velocity      energy  minus-mout   mout-plot    min-plot     time/iter
   452  1.1143e-01  3.0349e-02  1.0097e-02  1.0436e-01  2.4369e+00 -2.4369e+00  2.7561e+00  0:03:06 1548
   453  1.1279e-01  2.9075e-02  9.6636e-03  1.0572e-01  2.4339e+00 -2.4339e+00  2.7469e+00  0:02:28 1547
   454  1.1409e-01  2.7854e-02  9.2324e-03  1.0702e-01  2.4312e+00 -2.4312e+00  2.7374e+00  0:01:59 1546
   455  1.1533e-01  2.6696e-02  8.8080e-03  1.0826e-01  2.4288e+00 -2.4288e+00  2.7275e+00  0:06:44 1545
   456  1.1649e-01  2.5607e-02  8.3953e-03  1.0942e-01  2.4267e+00 -2.4267e+00  2.7172e+00  0:05:23 1544
   457  1.1757e-01  2.4595e-02  7.9991e-03  1.1051e-01  2.4250e+00 -2.4250e+00  2.7067e+00  0:04:18 1543
   458  1.1857e-01  2.3665e-02  7.6244e-03  1.1151e-01  2.4236e+00 -2.4236e+00  2.6959e+00  0:03:26 1542
   459  1.1948e-01  2.2823e-02  7.2756e-03  1.1242e-01  2.4225e+00 -2.4225e+00  2.6848e+00  0:02:45 1541
   460  1.2029e-01  2.2072e-02  6.9571e-03  1.1325e-01  2.4218e+00 -2.4218e+00  2.6736e+00  0:02:12 1540
   461  1.2101e-01  2.1415e-02  6.6728e-03  1.1398e-01  2.4214e+00 -2.4214e+00  2.6621e+00  0:06:53 1539
   462  1.2163e-01  2.0853e-02  6.4259e-03  1.1461e-01  2.4214e+00 -2.4214e+00  2.6505e+00  0:05:30 1538

  iter  continuity  x-velocity  y-velocity      energy  minus-mout   mout-plot    min-plot     time/iter
   463  1.2216e-01  2.0384e-02  6.2181e-03  1.1515e-01  2.4217e+00 -2.4217e+00  2.6388e+00  0:04:24 1537
   464  1.2258e-01  2.0005e-02  6.0514e-03  1.1559e-01  2.4223e+00 -2.4223e+00  2.6271e+00  0:03:31 1536
   465  1.2292e-01  1.9712e-02  5.9255e-03  1.1593e-01  2.4233e+00 -2.4233e+00  2.6152e+00  0:02:49 1535
   466  1.2315e-01  1.9498e-02  5.8391e-03  1.1618e-01  2.4246e+00 -2.4246e+00  2.6034e+00  0:02:15 1534
   467  1.2330e-01  1.9354e-02  5.7894e-03  1.1634e-01  2.4263e+00 -2.4263e+00  2.5916e+00  0:01:48 1533
   468  1.2336e-01  1.9273e-02  5.7728e-03  1.1641e-01  2.4282e+00 -2.4282e+00  2.5799e+00  0:06:33 1532
   469  1.2333e-01  1.9246e-02  5.7846e-03  1.1639e-01  2.4304e+00 -2.4304e+00  2.5683e+00  0:05:14 1531
   470  1.2322e-01  1.9262e-02  5.8199e-03  1.1629e-01  2.4329e+00 -2.4329e+00  2.5568e+00  0:04:11 1530
   471  1.2303e-01  1.9314e-02  5.8737e-03  1.1611e-01  2.4356e+00 -2.4356e+00  2.5455e+00  0:03:21 1529
   472  1.2277e-01  1.9393e-02  5.9409e-03  1.1585e-01  2.4386e+00 -2.4386e+00  2.5345e+00  0:02:40 1528
   473  1.2243e-01  1.9491e-02  6.0167e-03  1.1553e-01  2.4418e+00 -2.4418e+00  2.5237e+00  0:02:08 1527

  iter  continuity  x-velocity  y-velocity      energy  minus-mout   mout-plot    min-plot     time/iter
   474  1.2204e-01  1.9602e-02  6.0972e-03  1.1513e-01  2.4452e+00 -2.4452e+00  2.5132e+00  0:01:43 1526
   475  1.2158e-01  1.9720e-02  6.1781e-03  1.1468e-01  2.4487e+00 -2.4487e+00  2.5030e+00  0:06:27 1525
   476  1.2107e-01  1.9840e-02  6.2560e-03  1.1417e-01  2.4525e+00 -2.4525e+00  2.4932e+00  0:05:09 1524
   477  1.2051e-01  1.9960e-02  6.3282e-03  1.1361e-01  2.4564e+00 -2.4564e+00  2.4838e+00  0:04:07 1523
   478  1.1989e-01  2.0075e-02  6.3924e-03  1.1299e-01  2.4604e+00 -2.4604e+00  2.4748e+00  0:03:18 1522
   479  1.1924e-01  2.0185e-02  6.4470e-03  1.1234e-01  2.4645e+00 -2.4645e+00  2.4663e+00  0:02:38 1521
   480  1.1854e-01  2.0288e-02  6.4907e-03  1.1164e-01  2.4687e+00 -2.4687e+00  2.4583e+00  0:02:06 1520
   481  1.1781e-01  2.0383e-02  6.5223e-03  1.1090e-01  2.4729e+00 -2.4729e+00  2.4508e+00  0:06:45 1519
   482  1.1704e-01  2.0472e-02  6.5412e-03  1.1013e-01  2.4772e+00 -2.4772e+00  2.4439e+00  0:05:24 1518
   483  1.1624e-01  2.0555e-02  6.5468e-03  1.0933e-01  2.4815e+00 -2.4815e+00  2.4375e+00  0:09:22 1517
   484  1.1541e-01  2.0633e-02  6.5390e-03  1.0850e-01  2.4858e+00 -2.4858e+00  2.4317e+00  0:12:33 1516

  iter  continuity  x-velocity  y-velocity      energy  minus-mout   mout-plot    min-plot     time/iter
   485  1.1455e-01  2.0707e-02  6.5178e-03  1.0764e-01  2.4901e+00 -2.4901e+00  2.4265e+00  0:10:02 1515
   486  1.1367e-01  2.0780e-02  6.4836e-03  1.0675e-01  2.4944e+00 -2.4944e+00  2.4219e+00  0:08:01 1514
   487  1.1275e-01  2.0854e-02  6.4370e-03  1.0584e-01  2.4985e+00 -2.4985e+00  2.4180e+00  0:06:25 1513
   488  1.1182e-01  2.0932e-02  6.3789e-03  1.0491e-01  2.5027e+00 -2.5027e+00  2.4147e+00  0:05:07 1512
   489  1.1085e-01  2.1014e-02  6.3101e-03  1.0395e-01  2.5067e+00 -2.5067e+00  2.4121e+00  0:09:08 1511
   490  1.0986e-01  2.1105e-02  6.2319e-03  1.0297e-01  2.5107e+00 -2.5107e+00  2.4101e+00  0:07:18 1510
   491  1.0885e-01  2.1206e-02  6.1459e-03  1.0197e-01  2.5145e+00 -2.5145e+00  2.4087e+00  0:10:52 1509
   492  1.0781e-01  2.1320e-02  6.0535e-03  1.0095e-01  2.5182e+00 -2.5182e+00  2.4081e+00  0:08:41 1508
   493  1.0675e-01  2.1448e-02  5.9566e-03  9.9907e-02  2.5218e+00 -2.5218e+00  2.4081e+00  0:06:57 1507
   494  1.0566e-01  2.1592e-02  5.8573e-03  9.8845e-02  2.5252e+00 -2.5252e+00  2.4087e+00  0:05:33 1506
   495  1.0455e-01  2.1754e-02  5.7576e-03  9.7762e-02  2.5284e+00 -2.5284e+00  2.4100e+00  0:04:26 1505

  iter  continuity  x-velocity  y-velocity      energy  minus-mout   mout-plot    min-plot     time/iter
   496  1.0341e-01  2.1935e-02  5.6600e-03  9.6659e-02  2.5315e+00 -2.5315e+00  2.4119e+00  0:08:34 1504
   497  1.0225e-01  2.2136e-02  5.5668e-03  9.5537e-02  2.5344e+00 -2.5344e+00  2.4144e+00  0:06:51 1503
   498  1.0106e-01  2.2358e-02  5.4805e-03  9.4396e-02  2.5371e+00 -2.5371e+00  2.4175e+00  0:05:28 1502
   499  9.9848e-02  2.2601e-02  5.4034e-03  9.3237e-02  2.5397e+00 -2.5397e+00  2.4212e+00  0:04:23 1501
   500  9.8616e-02  2.2865e-02  5.3385e-03  9.2062e-02  2.5420e+00 -2.5420e+00  2.4255e+00  0:03:30 1500
   501  9.7362e-02  2.3149e-02  5.2880e-03  9.0871e-02  2.5441e+00 -2.5441e+00  2.4304e+00  0:02:48 1499
   502  9.6089e-02  2.3452e-02  5.2536e-03  8.9668e-02  2.5460e+00 -2.5460e+00  2.4358e+00  0:07:14 1498
   503  9.4799e-02  2.3774e-02  5.2374e-03  8.8453e-02  2.5478e+00 -2.5478e+00  2.4417e+00  0:05:47 1497
   504  9.3495e-02  2.4113e-02  5.2404e-03  8.7230e-02  2.5493e+00 -2.5493e+00  2.4481e+00  0:04:37 1496
   505  9.2180e-02  2.4467e-02  5.2636e-03  8.6001e-02  2.5506e+00 -2.5506e+00  2.4549e+00  0:03:42 1495
   506  9.0858e-02  2.4834e-02  5.3044e-03  8.4770e-02  2.5516e+00 -2.5516e+00  2.4622e+00  0:02:57 1494

  iter  continuity  x-velocity  y-velocity      energy  minus-mout   mout-plot    min-plot     time/iter
   507  8.9532e-02  2.5213e-02  5.3653e-03  8.3542e-02  2.5525e+00 -2.5525e+00  2.4699e+00  0:02:22 1493
   508  8.8208e-02  2.5601e-02  5.4442e-03  8.2319e-02  2.5531e+00 -2.5531e+00  2.4780e+00  0:06:52 1492
   509  8.6889e-02  2.5996e-02  5.5418e-03  8.1107e-02  2.5536e+00 -2.5536e+00  2.4865e+00  0:05:29 1491
   510  8.5580e-02  2.6395e-02  5.6545e-03  7.9910e-02  2.5538e+00 -2.5538e+00  2.4952e+00  0:04:23 1490
   511  8.4289e-02  2.6798e-02  5.7801e-03  7.8734e-02  2.5538e+00 -2.5538e+00  2.5043e+00  0:03:30 1489
   512  8.3018e-02  2.7201e-02  5.9167e-03  7.7584e-02  2.5536e+00 -2.5536e+00  2.5136e+00  0:02:48 1488
   513  8.1776e-02  2.7600e-02  6.0622e-03  7.6465e-02  2.5533e+00 -2.5533e+00  2.5232e+00  0:02:14 1487
   514  8.0568e-02  2.7995e-02  6.2151e-03  7.5383e-02  2.5527e+00 -2.5527e+00  2.5331e+00  0:06:45 1486
   515  7.9400e-02  2.8384e-02  6.3724e-03  7.4344e-02  2.5519e+00 -2.5519e+00  2.5431e+00  0:05:24 1485
   516  7.8278e-02  2.8763e-02  6.5337e-03  7.3353e-02  2.5509e+00 -2.5509e+00  2.5532e+00  0:04:19 1484
   517  7.7209e-02  2.9132e-02  6.6966e-03  7.2416e-02  2.5498e+00 -2.5498e+00  2.5636e+00  0:03:27 1483

  iter  continuity  x-velocity  y-velocity      energy  minus-mout   mout-plot    min-plot     time/iter
   518  7.6197e-02  2.9488e-02  6.8579e-03  7.1538e-02  2.5485e+00 -2.5485e+00  2.5740e+00  0:02:45 1482
   519  7.5248e-02  2.9829e-02  7.0178e-03  7.0725e-02  2.5470e+00 -2.5470e+00  2.5845e+00  0:02:12 1481
   520  7.4367e-02  3.0155e-02  7.1749e-03  6.9979e-02  2.5453e+00 -2.5453e+00  2.5951e+00  0:06:42 1480
   521  7.3559e-02  3.0463e-02  7.3267e-03  6.9306e-02  2.5435e+00 -2.5435e+00  2.6057e+00  0:05:21 1479
   522  7.2827e-02  3.0753e-02  7.4731e-03  6.8708e-02  2.5415e+00 -2.5415e+00  2.6163e+00  0:04:17 1478
   523  7.2176e-02  3.1023e-02  7.6132e-03  6.8188e-02  2.5394e+00 -2.5394e+00  2.6269e+00  0:08:21 1477
   524  7.1606e-02  3.1272e-02  7.7451e-03  6.7748e-02  2.5371e+00 -2.5371e+00  2.6375e+00  0:06:40 1476
   525  7.1120e-02  3.1499e-02  7.8691e-03  6.7388e-02  2.5347e+00 -2.5347e+00  2.6480e+00  0:05:20 1475
   526  7.0718e-02  3.1704e-02  7.9846e-03  6.7108e-02  2.5322e+00 -2.5322e+00  2.6585e+00  0:04:16 1474
   527  7.0401e-02  3.1885e-02  8.0908e-03  6.6909e-02  2.5296e+00 -2.5296e+00  2.6689e+00  0:03:25 1473
   528  7.0167e-02  3.2043e-02  8.1870e-03  6.6789e-02  2.5268e+00 -2.5268e+00  2.6791e+00  0:02:43 1472

  iter  continuity  x-velocity  y-velocity      energy  minus-mout   mout-plot    min-plot     time/iter
   529  7.0016e-02  3.2177e-02  8.2730e-03  6.6744e-02  2.5240e+00 -2.5240e+00  2.6892e+00  0:07:05 1471
   530  6.9943e-02  3.2287e-02  8.3488e-03  6.6772e-02  2.5211e+00 -2.5211e+00  2.6992e+00  0:05:40 1470
   531  6.9947e-02  3.2372e-02  8.4141e-03  6.6870e-02  2.5180e+00 -2.5180e+00  2.7090e+00  0:04:32 1469
   532  7.0023e-02  3.2433e-02  8.4687e-03  6.7032e-02  2.5149e+00 -2.5149e+00  2.7186e+00  0:03:37 1468
   533  7.0166e-02  3.2469e-02  8.5127e-03  6.7255e-02  2.5118e+00 -2.5118e+00  2.7281e+00  0:02:54 1467
   534  7.0373e-02  3.2481e-02  8.5460e-03  6.7532e-02  2.5085e+00 -2.5085e+00  2.7373e+00  0:07:12 1466
   535  7.0637e-02  3.2469e-02  8.5686e-03  6.7859e-02  2.5052e+00 -2.5052e+00  2.7463e+00  0:05:45 1465
   536  7.0954e-02  3.2433e-02  8.5805e-03  6.8230e-02  2.5019e+00 -2.5019e+00  2.7551e+00  0:04:36 1464
[...]
  iter  continuity  x-velocity  y-velocity      energy  minus-mout   mout-plot    min-plot     time/iter
   793  3.4489e-03  5.9179e-04  5.8968e-04  3.3774e-03  3.6005e+00 -3.6005e+00  3.5694e+00  0:06:09 1207
   794  3.4213e-03  5.7869e-04  5.7895e-04  3.3489e-03  3.6004e+00 -3.6004e+00  3.5696e+00  0:04:55 1206
   795  3.3927e-03  5.6564e-04  5.6830e-04  3.3195e-03  3.6004e+00 -3.6004e+00  3.5697e+00  0:03:56 1205
   796  3.3631e-03  5.5264e-04  5.5773e-04  3.2892e-03  3.6003e+00 -3.6003e+00  3.5698e+00  0:03:08 1204
   797  3.3327e-03  5.3971e-04  5.4726e-04  3.2580e-03  3.6003e+00 -3.6003e+00  3.5700e+00  0:02:31 1203
   798  3.3013e-03  5.2686e-04  5.3690e-04  3.2260e-03  3.6003e+00 -3.6003e+00  3.5702e+00  0:06:01 1202
   799  3.2690e-03  5.1411e-04  5.2665e-04  3.1931e-03  3.6002e+00 -3.6002e+00  3.5704e+00  0:04:48 1201
   800  3.2359e-03  5.0146e-04  5.1654e-04  3.1594e-03  3.6002e+00 -3.6002e+00  3.5706e+00  0:03:50 1200
   801  3.2020e-03  4.8894e-04  5.0656e-04  3.1250e-03  3.6001e+00 -3.6001e+00  3.5708e+00  0:03:04 1199
   802  3.1673e-03  4.7656e-04  4.9674e-04  3.0899e-03  3.6001e+00 -3.6001e+00  3.5710e+00  0:06:27 1198
   803  3.1318e-03  4.6433e-04  4.8707e-04  3.0540e-03  3.6001e+00 -3.6001e+00  3.5713e+00  0:05:09 1197

  iter  continuity  x-velocity  y-velocity      energy  minus-mout   mout-plot    min-plot     time/iter
   804  3.0957e-03  4.5226e-04  4.7758e-04  3.0175e-03  3.6000e+00 -3.6000e+00  3.5715e+00  0:04:07 1196
   805  3.0588e-03  4.4039e-04  4.6827e-04  2.9804e-03  3.6000e+00 -3.6000e+00  3.5718e+00  0:07:17 1195
   806  3.0213e-03  4.2871e-04  4.5916e-04  2.9427e-03  3.6000e+00 -3.6000e+00  3.5721e+00  0:05:49 1194
   807  2.9832e-03  4.1725e-04  4.5025e-04  2.9044e-03  3.5999e+00 -3.5999e+00  3.5724e+00  0:04:39 1193
   808  2.9445e-03  4.0603e-04  4.4156e-04  2.8655e-03  3.5999e+00 -3.5999e+00  3.5727e+00  0:07:41 1192
   809  2.9052e-03  3.9506e-04  4.3309e-04  2.8262e-03  3.5998e+00 -3.5998e+00  3.5730e+00  0:06:09 1191
   810  2.8654e-03  3.8436e-04  4.2485e-04  2.7864e-03  3.5998e+00 -3.5998e+00  3.5733e+00  0:04:55 1190
   811  2.8252e-03  3.7395e-04  4.1687e-04  2.7462e-03  3.5998e+00 -3.5998e+00  3.5736e+00  0:03:56 1189
   812  2.7845e-03  3.6385e-04  4.0914e-04  2.7056e-03  3.5997e+00 -3.5997e+00  3.5740e+00  0:07:06 1188
   813  2.7433e-03  3.5408e-04  4.0167e-04  2.6646e-03  3.5997e+00 -3.5997e+00  3.5743e+00  0:05:40 1187
   814  2.7018e-03  3.4466e-04  3.9449e-04  2.6233e-03  3.5997e+00 -3.5997e+00  3.5747e+00  0:04:32 1186

  iter  continuity  x-velocity  y-velocity      energy  minus-mout   mout-plot    min-plot     time/iter
   815  2.6600e-03  3.3560e-04  3.8758e-04  2.5817e-03  3.5996e+00 -3.5996e+00  3.5750e+00  0:07:35 1185
   816  2.6179e-03  3.2694e-04  3.8098e-04  2.5398e-03  3.5996e+00 -3.5996e+00  3.5754e+00  0:06:03 1184
   817  2.5754e-03  3.1868e-04  3.7467e-04  2.4978e-03  3.5996e+00 -3.5996e+00  3.5758e+00  0:04:50 1183
   818  2.5328e-03  3.1085e-04  3.6867e-04  2.4555e-03  3.5996e+00 -3.5996e+00  3.5762e+00  0:07:49 1182
   819  2.4900e-03  3.0346e-04  3.6299e-04  2.4131e-03  3.5995e+00 -3.5995e+00  3.5766e+00  0:06:15 1181
   820  2.4469e-03  2.9654e-04  3.5762e-04  2.3706e-03  3.5995e+00 -3.5995e+00  3.5770e+00  0:08:55 1180
   821  2.4038e-03  2.9010e-04  3.5259e-04  2.3280e-03  3.5995e+00 -3.5995e+00  3.5774e+00  0:07:08 1179
   822  2.3606e-03  2.8416e-04  3.4787e-04  2.2854e-03  3.5994e+00 -3.5994e+00  3.5778e+00  0:05:42 1178
   823  2.3174e-03  2.7873e-04  3.4349e-04  2.2428e-03  3.5994e+00 -3.5994e+00  3.5782e+00  0:08:29 1177
   824  2.2741e-03  2.7382e-04  3.3944e-04  2.2003e-03  3.5994e+00 -3.5994e+00  3.5786e+00  0:06:47 1176
   825  2.2309e-03  2.6944e-04  3.3571e-04  2.1578e-03  3.5994e+00 -3.5994e+00  3.5791e+00  0:05:25 1175

  iter  continuity  x-velocity  y-velocity      energy  minus-mout   mout-plot    min-plot     time/iter
   826  2.1877e-03  2.6559e-04  3.3230e-04  2.1155e-03  3.5993e+00 -3.5993e+00  3.5795e+00  0:04:20 1174
   827  2.1447e-03  2.6228e-04  3.2922e-04  2.0733e-03  3.5993e+00 -3.5993e+00  3.5799e+00  0:03:28 1173
   828  2.1018e-03  2.5949e-04  3.2647e-04  2.0313e-03  3.5993e+00 -3.5993e+00  3.5804e+00  0:02:46 1172
   829  2.0592e-03  2.5724e-04  3.2403e-04  1.9896e-03  3.5993e+00 -3.5993e+00  3.5808e+00  0:06:07 1171
   830  2.0167e-03  2.5550e-04  3.2189e-04  1.9482e-03  3.5992e+00 -3.5992e+00  3.5813e+00  0:04:53 1170
   831  1.9746e-03  2.5426e-04  3.2006e-04  1.9071e-03  3.5992e+00 -3.5992e+00  3.5817e+00  0:03:54 1169
   832  1.9327e-03  2.5351e-04  3.1851e-04  1.8663e-03  3.5992e+00 -3.5992e+00  3.5822e+00  0:03:07 1168
   833  1.8912e-03  2.5322e-04  3.1723e-04  1.8260e-03  3.5992e+00 -3.5992e+00  3.5827e+00  0:02:30 1167
   834  1.8502e-03  2.5337e-04  3.1622e-04  1.7862e-03  3.5992e+00 -3.5992e+00  3.5831e+00  0:05:53 1166
   835  1.8096e-03  2.5394e-04  3.1546e-04  1.7468e-03  3.5991e+00 -3.5991e+00  3.5836e+00  0:04:42 1165
   836  1.7695e-03  2.5489e-04  3.1495e-04  1.7080e-03  3.5991e+00 -3.5991e+00  3.5840e+00  0:03:45 1164

  iter  continuity  x-velocity  y-velocity      energy  minus-mout   mout-plot    min-plot     time/iter
   837  1.7299e-03  2.5621e-04  3.1466e-04  1.6699e-03  3.5991e+00 -3.5991e+00  3.5845e+00  0:03:00 1163
   838  1.6910e-03  2.5786e-04  3.1459e-04  1.6323e-03  3.5991e+00 -3.5991e+00  3.5850e+00  0:02:24 1162
   839  1.6527e-03  2.5980e-04  3.1472e-04  1.5955e-03  3.5991e+00 -3.5991e+00  3.5854e+00  0:05:47 1161
   840  1.6150e-03  2.6202e-04  3.1504e-04  1.5594e-03  3.5990e+00 -3.5990e+00  3.5859e+00  0:04:38 1160
   841  1.5782e-03  2.6447e-04  3.1552e-04  1.5240e-03  3.5990e+00 -3.5990e+00  3.5864e+00  0:03:42 1159
   842  1.5421e-03  2.6714e-04  3.1615e-04  1.4896e-03  3.5990e+00 -3.5990e+00  3.5869e+00  0:02:57 1158
   843  1.5068e-03  2.6999e-04  3.1693e-04  1.4560e-03  3.5990e+00 -3.5990e+00  3.5873e+00  0:02:22 1157
   844  1.4725e-03  2.7300e-04  3.1782e-04  1.4233e-03  3.5990e+00 -3.5990e+00  3.5878e+00  0:05:45 1156
   845  1.4391e-03  2.7613e-04  3.1883e-04  1.3917e-03  3.5990e+00 -3.5990e+00  3.5883e+00  0:04:35 1155
   846  1.4067e-03  2.7937e-04  3.1994e-04  1.3610e-03  3.5990e+00 -3.5990e+00  3.5887e+00  0:03:40 1154
   847  1.3753e-03  2.8269e-04  3.2113e-04  1.3315e-03  3.5990e+00 -3.5990e+00  3.5892e+00  0:02:56 1153

  iter  continuity  x-velocity  y-velocity      energy  minus-mout   mout-plot    min-plot     time/iter
   848  1.3450e-03  2.8608e-04  3.2240e-04  1.3031e-03  3.5989e+00 -3.5989e+00  3.5897e+00  0:02:21 1152
   849  1.3159e-03  2.8951e-04  3.2371e-04  1.2759e-03  3.5989e+00 -3.5989e+00  3.5901e+00  0:01:52 1151
   850  1.2880e-03  2.9296e-04  3.2507e-04  1.2499e-03  3.5989e+00 -3.5989e+00  3.5906e+00  0:05:20 1150
   851  1.2613e-03  2.9641e-04  3.2647e-04  1.2252e-03  3.5989e+00 -3.5989e+00  3.5911e+00  0:04:16 1149
   852  1.2359e-03  2.9986e-04  3.2788e-04  1.2018e-03  3.5989e+00 -3.5989e+00  3.5915e+00  0:03:24 1148
   853  1.2118e-03  3.0328e-04  3.2931e-04  1.1797e-03  3.5989e+00 -3.5989e+00  3.5920e+00  0:02:43 1147
   854  1.1891e-03  3.0666e-04  3.3074e-04  1.1590e-03  3.5989e+00 -3.5989e+00  3.5924e+00  0:02:11 1146
   855  1.1678e-03  3.0999e-04  3.3217e-04  1.1398e-03  3.5989e+00 -3.5989e+00  3.5929e+00  0:05:33 1145
   856  1.1479e-03  3.1325e-04  3.3357e-04  1.1219e-03  3.5989e+00 -3.5989e+00  3.5933e+00  0:04:26 1144
   857  1.1295e-03  3.1645e-04  3.3495e-04  1.1055e-03  3.5989e+00 -3.5989e+00  3.5938e+00  0:03:33 1143
   858  1.1126e-03  3.1956e-04  3.3630e-04  1.0906e-03  3.5989e+00 -3.5989e+00  3.5942e+00  0:02:50 1142

  iter  continuity  x-velocity  y-velocity      energy  minus-mout   mout-plot    min-plot     time/iter
   859  1.0972e-03  3.2258e-04  3.3760e-04  1.0771e-03  3.5989e+00 -3.5989e+00  3.5946e+00  0:02:16 1141
   860  1.0832e-03  3.2550e-04  3.3886e-04  1.0651e-03  3.5989e+00 -3.5989e+00  3.5951e+00  0:05:37 1140
   861  1.0708e-03  3.2831e-04  3.4006e-04  1.0545e-03  3.5989e+00 -3.5989e+00  3.5955e+00  0:04:29 1139
   862  1.0598e-03  3.3101e-04  3.4120e-04  1.0454e-03  3.5989e+00 -3.5989e+00  3.5959e+00  0:07:23 1138
   863  1.0504e-03  3.3359e-04  3.4228e-04  1.0376e-03  3.5989e+00 -3.5989e+00  3.5963e+00  0:05:54 1137
   864  1.0423e-03  3.3606e-04  3.4328e-04  1.0313e-03  3.5989e+00 -3.5989e+00  3.5968e+00  0:04:43 1136
   865  1.0357e-03  3.3839e-04  3.4421e-04  1.0262e-03  3.5989e+00 -3.5989e+00  3.5972e+00  0:03:46 1135
   866  1.0305e-03  3.4059e-04  3.4505e-04  1.0225e-03  3.5989e+00 -3.5989e+00  3.5976e+00  0:03:01 1134
   867  1.0265e-03  3.4265e-04  3.4581e-04  1.0200e-03  3.5989e+00 -3.5989e+00  3.5980e+00  0:06:11 1133
   868  1.0239e-03  3.4458e-04  3.4649e-04  1.0187e-03  3.5989e+00 -3.5989e+00  3.5984e+00  0:04:57 1132
   869  1.0225e-03  3.4637e-04  3.4707e-04  1.0184e-03  3.5989e+00 -3.5989e+00  3.5988e+00  0:03:57 1131

  iter  continuity  x-velocity  y-velocity      energy  minus-mout   mout-plot    min-plot     time/iter
   870  1.0222e-03  3.4801e-04  3.4756e-04  1.0193e-03  3.5989e+00 -3.5989e+00  3.5992e+00  0:03:09 1130
   871  1.0230e-03  3.4951e-04  3.4795e-04  1.0211e-03  3.5989e+00 -3.5989e+00  3.5995e+00  0:06:17 1129
   872  1.0248e-03  3.5086e-04  3.4824e-04  1.0238e-03  3.5989e+00 -3.5989e+00  3.5999e+00  0:05:02 1128
   873  1.0276e-03  3.5207e-04  3.4844e-04  1.0273e-03  3.5989e+00 -3.5989e+00  3.6003e+00  0:04:01 1127
   874  1.0312e-03  3.5312e-04  3.4853e-04  1.0316e-03  3.5989e+00 -3.5989e+00  3.6006e+00  0:03:13 1126
   875  1.0357e-03  3.5403e-04  3.4852e-04  1.0366e-03  3.5989e+00 -3.5989e+00  3.6010e+00  0:06:19 1125
   876  1.0408e-03  3.5478e-04  3.4840e-04  1.0423e-03  3.5989e+00 -3.5989e+00  3.6013e+00  0:05:03 1124
   877  1.0466e-03  3.5539e-04  3.4818e-04  1.0484e-03  3.5989e+00 -3.5989e+00  3.6017e+00  0:04:02 1123
   878  1.0530e-03  3.5585e-04  3.4785e-04  1.0551e-03  3.5989e+00 -3.5989e+00  3.6020e+00  0:03:14 1122
   879  1.0598e-03  3.5615e-04  3.4742e-04  1.0622e-03  3.5989e+00 -3.5989e+00  3.6024e+00  0:02:35 1121
   880  1.0671e-03  3.5631e-04  3.4688e-04  1.0696e-03  3.5989e+00 -3.5989e+00  3.6027e+00  0:05:48 1120

  iter  continuity  x-velocity  y-velocity      energy  minus-mout   mout-plot    min-plot     time/iter
   881  1.0748e-03  3.5632e-04  3.4623e-04  1.0773e-03  3.5989e+00 -3.5989e+00  3.6030e+00  0:04:38 1119
   882  1.0828e-03  3.5618e-04  3.4548e-04  1.0852e-03  3.5989e+00 -3.5989e+00  3.6033e+00  0:03:42 1118
   883  1.0910e-03  3.5589e-04  3.4462e-04  1.0933e-03  3.5989e+00 -3.5989e+00  3.6036e+00  0:02:58 1117
   884  1.0993e-03  3.5546e-04  3.4365e-04  1.1015e-03  3.5989e+00 -3.5989e+00  3.6039e+00  0:02:22 1116
   885  1.1079e-03  3.5489e-04  3.4258e-04  1.1098e-03  3.5989e+00 -3.5989e+00  3.6042e+00  0:01:53 1115
   886  1.1164e-03  3.5417e-04  3.4141e-04  1.1181e-03  3.5990e+00 -3.5990e+00  3.6045e+00  0:05:13 1114
   887  1.1251e-03  3.5331e-04  3.4013e-04  1.1264e-03  3.5990e+00 -3.5990e+00  3.6048e+00  0:04:11 1113
   888  1.1337e-03  3.5231e-04  3.3875e-04  1.1347e-03  3.5990e+00 -3.5990e+00  3.6050e+00  0:03:20 1112
   889  1.1422e-03  3.5117e-04  3.3726e-04  1.1428e-03  3.5990e+00 -3.5990e+00  3.6053e+00  0:02:40 1111
   890  1.1506e-03  3.4990e-04  3.3568e-04  1.1508e-03  3.5990e+00 -3.5990e+00  3.6056e+00  0:02:08 1110
   891  1.1589e-03  3.4849e-04  3.3400e-04  1.1586e-03  3.5990e+00 -3.5990e+00  3.6058e+00  0:01:42 1109

  iter  continuity  x-velocity  y-velocity      energy  minus-mout   mout-plot    min-plot     time/iter
   892  1.1671e-03  3.4695e-04  3.3222e-04  1.1662e-03  3.5990e+00 -3.5990e+00  3.6061e+00  0:05:03 1108
   893  1.1750e-03  3.4528e-04  3.3034e-04  1.1736e-03  3.5990e+00 -3.5990e+00  3.6063e+00  0:04:02 1107
   894  1.1827e-03  3.4349e-04  3.2837e-04  1.1808e-03  3.5990e+00 -3.5990e+00  3.6065e+00  0:03:14 1106
   895  1.1901e-03  3.4157e-04  3.2631e-04  1.1876e-03  3.5990e+00 -3.5990e+00  3.6067e+00  0:02:35 1105
   896  1.1973e-03  3.3953e-04  3.2416e-04  1.1942e-03  3.5991e+00 -3.5991e+00  3.6070e+00  0:02:04 1104
   897  1.2041e-03  3.3736e-04  3.2192e-04  1.2004e-03  3.5991e+00 -3.5991e+00  3.6072e+00  0:05:20 1103
   898  1.2107e-03  3.3509e-04  3.1960e-04  1.2063e-03  3.5991e+00 -3.5991e+00  3.6074e+00  0:04:15 1102
   899  1.2168e-03  3.3269e-04  3.1718e-04  1.2119e-03  3.5991e+00 -3.5991e+00  3.6076e+00  0:03:24 1101
   900  1.2227e-03  3.3019e-04  3.1469e-04  1.2171e-03  3.5991e+00 -3.5991e+00  3.6077e+00  0:02:43 1100
   901  1.2281e-03  3.2757e-04  3.1212e-04  1.2218e-03  3.5991e+00 -3.5991e+00  3.6079e+00  0:02:10 1099
   902  1.2332e-03  3.2485e-04  3.0947e-04  1.2262e-03  3.5991e+00 -3.5991e+00  3.6081e+00  0:05:24 1098

  iter  continuity  x-velocity  y-velocity      energy  minus-mout   mout-plot    min-plot     time/iter
   903  1.2378e-03  3.2203e-04  3.0675e-04  1.2302e-03  3.5991e+00 -3.5991e+00  3.6083e+00  0:04:19 1097
   904  1.2420e-03  3.1911e-04  3.0395e-04  1.2338e-03  3.5992e+00 -3.5992e+00  3.6084e+00  0:07:06 1096
   905  1.2458e-03  3.1609e-04  3.0108e-04  1.2370e-03  3.5992e+00 -3.5992e+00  3.6086e+00  0:05:41 1095
   906  1.2492e-03  3.1297e-04  2.9814e-04  1.2397e-03  3.5992e+00 -3.5992e+00  3.6087e+00  0:04:32 1094
   907  1.2522e-03  3.0977e-04  2.9514e-04  1.2420e-03  3.5992e+00 -3.5992e+00  3.6088e+00  0:03:38 1093
   908  1.2547e-03  3.0647e-04  2.9208e-04  1.2438e-03  3.5992e+00 -3.5992e+00  3.6090e+00  0:02:54 1092
   909  1.2567e-03  3.0309e-04  2.8896e-04  1.2452e-03  3.5992e+00 -3.5992e+00  3.6091e+00  0:05:57 1091
   910  1.2583e-03  2.9963e-04  2.8578e-04  1.2462e-03  3.5992e+00 -3.5992e+00  3.6092e+00  0:04:45 1090
   911  1.2594e-03  2.9610e-04  2.8254e-04  1.2467e-03  3.5993e+00 -3.5993e+00  3.6093e+00  0:03:48 1089
   912  1.2601e-03  2.9248e-04  2.7926e-04  1.2467e-03  3.5993e+00 -3.5993e+00  3.6094e+00  0:03:02 1088
   913  1.2603e-03  2.8880e-04  2.7592e-04  1.2464e-03  3.5993e+00 -3.5993e+00  3.6095e+00  0:02:26 1087

  iter  continuity  x-velocity  y-velocity      energy  minus-mout   mout-plot    min-plot     time/iter
   914  1.2601e-03  2.8505e-04  2.7254e-04  1.2455e-03  3.5993e+00 -3.5993e+00  3.6096e+00  0:01:57 1086
   915  1.2594e-03  2.8123e-04  2.6912e-04  1.2442e-03  3.5993e+00 -3.5993e+00  3.6097e+00  0:05:10 1085
   916  1.2582e-03  2.7735e-04  2.6565e-04  1.2425e-03  3.5993e+00 -3.5993e+00  3.6097e+00  0:04:08 1084
   917  1.2566e-03  2.7341e-04  2.6215e-04  1.2403e-03  3.5993e+00 -3.5993e+00  3.6098e+00  0:03:18 1083
   918  1.2546e-03  2.6942e-04  2.5862e-04  1.2376e-03  3.5994e+00 -3.5994e+00  3.6099e+00  0:02:38 1082
   919  1.2520e-03  2.6537e-04  2.5505e-04  1.2346e-03  3.5994e+00 -3.5994e+00  3.6099e+00  0:02:07 1081
   920  1.2491e-03  2.6128e-04  2.5145e-04  1.2311e-03  3.5994e+00 -3.5994e+00  3.6100e+00  0:05:17 1080
   921  1.2456e-03  2.5715e-04  2.4783e-04  1.2271e-03  3.5994e+00 -3.5994e+00  3.6100e+00  0:04:13 1079
   922  1.2418e-03  2.5297e-04  2.4419e-04  1.2228e-03  3.5994e+00 -3.5994e+00  3.6101e+00  0:03:23 1078
   923  1.2375e-03  2.4876e-04  2.4053e-04  1.2180e-03  3.5994e+00 -3.5994e+00  3.6101e+00  0:02:42 1077
   924  1.2327e-03  2.4451e-04  2.3686e-04  1.2128e-03  3.5994e+00 -3.5994e+00  3.6101e+00  0:02:09 1076

  iter  continuity  x-velocity  y-velocity      energy  minus-mout   mout-plot    min-plot     time/iter
   925  1.2276e-03  2.4023e-04  2.3317e-04  1.2071e-03  3.5995e+00 -3.5995e+00  3.6101e+00  0:05:18 1075
   926  1.2220e-03  2.3593e-04  2.2947e-04  1.2011e-03  3.5995e+00 -3.5995e+00  3.6101e+00  0:04:15 1074
   927  1.2160e-03  2.3160e-04  2.2577e-04  1.1947e-03  3.5995e+00 -3.5995e+00  3.6101e+00  0:03:23 1073
   928  1.2096e-03  2.2725e-04  2.2206e-04  1.1879e-03  3.5995e+00 -3.5995e+00  3.6101e+00  0:02:43 1072
   929  1.2029e-03  2.2289e-04  2.1836e-04  1.1807e-03  3.5995e+00 -3.5995e+00  3.6101e+00  0:02:10 1071
   930  1.1957e-03  2.1852e-04  2.1466e-04  1.1732e-03  3.5995e+00 -3.5995e+00  3.6101e+00  0:01:44 1070
   931  1.1881e-03  2.1414e-04  2.1096e-04  1.1652e-03  3.5995e+00 -3.5995e+00  3.6101e+00  0:04:57 1069
   932  1.1802e-03  2.0976e-04  2.0728e-04  1.1569e-03  3.5996e+00 -3.5996e+00  3.6101e+00  0:03:57 1068
   933  1.1719e-03  2.0537e-04  2.0361e-04  1.1483e-03  3.5996e+00 -3.5996e+00  3.6101e+00  0:03:10 1067
   934  1.1632e-03  2.0100e-04  1.9996e-04  1.1393e-03  3.5996e+00 -3.5996e+00  3.6100e+00  0:02:32 1066
   935  1.1542e-03  1.9662e-04  1.9632e-04  1.1300e-03  3.5996e+00 -3.5996e+00  3.6100e+00  0:02:01 1065

  iter  continuity  x-velocity  y-velocity      energy  minus-mout   mout-plot    min-plot     time/iter
   936  1.1448e-03  1.9227e-04  1.9272e-04  1.1204e-03  3.5996e+00 -3.5996e+00  3.6099e+00  0:05:10 1064
   937  1.1351e-03  1.8792e-04  1.8914e-04  1.1104e-03  3.5996e+00 -3.5996e+00  3.6099e+00  0:04:07 1063
   938  1.1251e-03  1.8360e-04  1.8559e-04  1.1002e-03  3.5996e+00 -3.5996e+00  3.6098e+00  0:03:18 1062
   939  1.1148e-03  1.7931e-04  1.8208e-04  1.0896e-03  3.5997e+00 -3.5997e+00  3.6098e+00  0:02:38 1061
   940  1.1042e-03  1.7504e-04  1.7860e-04  1.0788e-03  3.5997e+00 -3.5997e+00  3.6097e+00  0:02:06 1060
   941  1.0933e-03  1.7081e-04  1.7517e-04  1.0677e-03  3.5997e+00 -3.5997e+00  3.6097e+00  0:05:13 1059
   942  1.0821e-03  1.6661e-04  1.7179e-04  1.0563e-03  3.5997e+00 -3.5997e+00  3.6096e+00  0:04:10 1058
   943  1.0706e-03  1.6246e-04  1.6845e-04  1.0447e-03  3.5997e+00 -3.5997e+00  3.6095e+00  0:03:20 1057
   944  1.0589e-03  1.5836e-04  1.6517e-04  1.0328e-03  3.5997e+00 -3.5997e+00  3.6094e+00  0:06:11 1056
   945  1.0469e-03  1.5431e-04  1.6194e-04  1.0207e-03  3.5997e+00 -3.5997e+00  3.6094e+00  0:04:56 1055
   946  1.0347e-03  1.5031e-04  1.5878e-04  1.0084e-03  3.5997e+00 -3.5997e+00  3.6093e+00  0:03:57 1054

  iter  continuity  x-velocity  y-velocity      energy  minus-mout   mout-plot    min-plot     time/iter
   947  1.0223e-03  1.4638e-04  1.5568e-04  9.9588e-04  3.5998e+00 -3.5998e+00  3.6092e+00  0:06:40 1053
   948  1.0096e-03  1.4253e-04  1.5264e-04  9.8315e-04  3.5998e+00 -3.5998e+00  3.6091e+00  0:05:20 1052
   949  9.9675e-04  1.3874e-04  1.4969e-04  9.7023e-04  3.5998e+00 -3.5998e+00  3.6090e+00  0:04:15 1051
!  949 solution is converged
Performance profile written to C:/Users/Cosimo/AppData/Local/Temp/_DESKTOP-13BM670_17384/run-information.txt
Performance profile written to C:/Users/Cosimo/AppData/Local/Temp/_DESKTOP-13BM670_17384/run-information.txt
The definition of the dashboard-1 is updated with the display of velocity-plot.The definition of the dashboard-1 is updated with the display of static-pressure-plot.The definition of the dashboard-1 is updated with the display of static-temperature-plot.The definition of the dashboard-1 is updated with the display of contour-temperature.The definition of the dashboard-1 is updated with the display of contour-mach.The definition of the dashboard-1 is updated with the display of contour-velocity.The definition of the dashboard-1 is updated with the display of contour-pressure.The definition of the dashboard-1 is updated with the display of vector-velocity.
number tracked = 17, escaped = 17
The definition of the dashboard-1 is updated with the display of pathlines-1.
Writing to DESKTOP-13BM670:"C:/Users/Cosimo/Desktop/project_fluent_2/Ugello_Mesh_2.cffdb\Ugello_Mesh-Solve\DP8\Ugello_Mesh.cas.h5" in NODE0 mode and compression level 1 ...
Grouping cells for Laplace smoothing ...
        6058 cells,     1 zone  ...
       12394 faces,     5 zones ...
        6337 nodes,     1 zone  ...
  Done.
Done.

Writing to DESKTOP-13BM670:"C:/Users/Cosimo/Desktop/project_fluent_2/Ugello_Mesh_2.cffdb\Ugello_Mesh-Solve\DP8\Ugello_Mesh.dat.h5" in NODE0 mode and compression level 1 ...
  Writing results.
Done.

Transcript closed.
/exit y
Auto-Transcript Stop Time:  09:48:41, 17 Oct 2025 ora legale Europa occidentale 
Total Transcript Time: 1 Hour 20 Minute 19 Second.
